version 2
run DataCentric_Experiment_1-57-20121202-23:51:09-3496
attr configname DataCentric_Experiment_1
attr datetime 20121202-23:51:09
attr experiment DataCentric_Experiment_1
attr inifile DataCentric_2.ini
attr iterationvars $numNodes=107
attr iterationvars2 "$numNodes=107, $repetition=0"
attr measurement $numNodes=107
attr network DataCentricNet
attr numNodes 107
attr processid 3496
attr repetition 0
attr replication #0
attr resultdir results
attr runnumber 57
attr seedset 57

scalar . 	numNodes 	107
scalar DataCentricNet.host[0].net 	NumberOfNeighbours 	11
scalar DataCentricNet.host[0].net 	TotalNeighborLqi 	1051
scalar DataCentricNet.host[0].net 	AverageNeighborLqi 	95.545454545455
scalar DataCentricNet.host[0].net 	MaxNeighborLqi 	146
scalar DataCentricNet.host[0].net 	MinNeighborLqi 	0
scalar DataCentricNet.host[0].net 	TEST_LengthLatestInterestArrivalPeriod 	0
scalar DataCentricNet.host[0].net 	ignoreRatio 	0.71653543307087
scalar DataCentricNet.host[1].net 	NumberOfNeighbours 	7
scalar DataCentricNet.host[1].net 	TotalNeighborLqi 	982
scalar DataCentricNet.host[1].net 	AverageNeighborLqi 	140.28571428571
scalar DataCentricNet.host[1].net 	MaxNeighborLqi 	208
scalar DataCentricNet.host[1].net 	MinNeighborLqi 	0
scalar DataCentricNet.host[1].net 	TEST_LengthLatestInterestArrivalPeriod 	0
scalar DataCentricNet.host[1].net 	ignoreRatio 	0.63768115942029
scalar DataCentricNet.host[2].net 	NumberOfNeighbours 	7
scalar DataCentricNet.host[2].net 	TotalNeighborLqi 	851
scalar DataCentricNet.host[2].net 	AverageNeighborLqi 	121.57142857143
scalar DataCentricNet.host[2].net 	MaxNeighborLqi 	153
scalar DataCentricNet.host[2].net 	MinNeighborLqi 	58
scalar DataCentricNet.host[2].net 	TEST_LengthLatestInterestArrivalPeriod 	0
scalar DataCentricNet.host[2].net 	ignoreRatio 	0.68421052631579
scalar DataCentricNet.host[3].net 	NumberOfNeighbours 	4
scalar DataCentricNet.host[3].net 	TotalNeighborLqi 	519
scalar DataCentricNet.host[3].net 	AverageNeighborLqi 	129.75
scalar DataCentricNet.host[3].net 	MaxNeighborLqi 	212
scalar DataCentricNet.host[3].net 	MinNeighborLqi 	58
scalar DataCentricNet.host[3].net 	TEST_LengthLatestInterestArrivalPeriod 	0
scalar DataCentricNet.host[3].net 	ignoreRatio 	0.69230769230769
scalar DataCentricNet.host[4].net 	NumberOfNeighbours 	7
scalar DataCentricNet.host[4].net 	TotalNeighborLqi 	1024
scalar DataCentricNet.host[4].net 	AverageNeighborLqi 	146.28571428571
scalar DataCentricNet.host[4].net 	MaxNeighborLqi 	217
scalar DataCentricNet.host[4].net 	MinNeighborLqi 	58
scalar DataCentricNet.host[4].net 	TEST_LengthLatestInterestArrivalPeriod 	0
scalar DataCentricNet.host[4].net 	ignoreRatio 	0.63636363636364
scalar DataCentricNet.host[5].net 	NumberOfNeighbours 	5
scalar DataCentricNet.host[5].net 	TotalNeighborLqi 	455
scalar DataCentricNet.host[5].net 	AverageNeighborLqi 	91
scalar DataCentricNet.host[5].net 	MaxNeighborLqi 	136
scalar DataCentricNet.host[5].net 	MinNeighborLqi 	51
scalar DataCentricNet.host[5].net 	TEST_LengthLatestInterestArrivalPeriod 	0
scalar DataCentricNet.host[5].net 	ignoreRatio 	0.36507936507937
scalar DataCentricNet.host[6].net 	NumberOfNeighbours 	7
scalar DataCentricNet.host[6].net 	TotalNeighborLqi 	342
scalar DataCentricNet.host[6].net 	AverageNeighborLqi 	48.857142857143
scalar DataCentricNet.host[6].net 	MaxNeighborLqi 	118
scalar DataCentricNet.host[6].net 	MinNeighborLqi 	0
scalar DataCentricNet.host[6].net 	TEST_LengthLatestInterestArrivalPeriod 	0
scalar DataCentricNet.host[6].net 	ignoreRatio 	0.70516717325228
scalar DataCentricNet.host[7].net 	NumberOfNeighbours 	10
scalar DataCentricNet.host[7].net 	TotalNeighborLqi 	817
scalar DataCentricNet.host[7].net 	AverageNeighborLqi 	81.7
scalar DataCentricNet.host[7].net 	MaxNeighborLqi 	166
scalar DataCentricNet.host[7].net 	MinNeighborLqi 	1
scalar DataCentricNet.host[7].net 	TEST_LengthLatestInterestArrivalPeriod 	0
scalar DataCentricNet.host[7].net 	ignoreRatio 	0.61349693251534
scalar DataCentricNet.host[8].net 	NumberOfNeighbours 	6
scalar DataCentricNet.host[8].net 	TotalNeighborLqi 	757
scalar DataCentricNet.host[8].net 	AverageNeighborLqi 	126.16666666667
scalar DataCentricNet.host[8].net 	MaxNeighborLqi 	194
scalar DataCentricNet.host[8].net 	MinNeighborLqi 	58
scalar DataCentricNet.host[8].net 	TEST_LengthLatestInterestArrivalPeriod 	0
scalar DataCentricNet.host[8].net 	ignoreRatio 	0.34883720930233
scalar DataCentricNet.host[9].net 	NumberOfNeighbours 	11
scalar DataCentricNet.host[9].net 	TotalNeighborLqi 	899
scalar DataCentricNet.host[9].net 	AverageNeighborLqi 	81.727272727273
scalar DataCentricNet.host[9].net 	MaxNeighborLqi 	192
scalar DataCentricNet.host[9].net 	MinNeighborLqi 	8
scalar DataCentricNet.host[9].net 	TEST_LengthLatestInterestArrivalPeriod 	0
scalar DataCentricNet.host[9].net 	ignoreRatio 	0.65172413793103
scalar DataCentricNet.host[10].net 	NumberOfNeighbours 	5
scalar DataCentricNet.host[10].net 	TotalNeighborLqi 	633
scalar DataCentricNet.host[10].net 	AverageNeighborLqi 	126.6
scalar DataCentricNet.host[10].net 	MaxNeighborLqi 	174
scalar DataCentricNet.host[10].net 	MinNeighborLqi 	58
scalar DataCentricNet.host[10].net 	TEST_LengthLatestInterestArrivalPeriod 	0
scalar DataCentricNet.host[10].net 	ignoreRatio 	0.31034482758621
scalar DataCentricNet.host[11].net 	NumberOfNeighbours 	10
scalar DataCentricNet.host[11].net 	TotalNeighborLqi 	1155
scalar DataCentricNet.host[11].net 	AverageNeighborLqi 	115.5
scalar DataCentricNet.host[11].net 	MaxNeighborLqi 	192
scalar DataCentricNet.host[11].net 	MinNeighborLqi 	39
scalar DataCentricNet.host[11].net 	TEST_LengthLatestInterestArrivalPeriod 	0
scalar DataCentricNet.host[11].net 	ignoreRatio 	0.69254658385093
scalar DataCentricNet.host[12].net 	NumberOfNeighbours 	10
scalar DataCentricNet.host[12].net 	TotalNeighborLqi 	1556
scalar DataCentricNet.host[12].net 	AverageNeighborLqi 	155.6
scalar DataCentricNet.host[12].net 	MaxNeighborLqi 	248
scalar DataCentricNet.host[12].net 	MinNeighborLqi 	108
scalar DataCentricNet.host[12].net 	TEST_LengthLatestInterestArrivalPeriod 	0
scalar DataCentricNet.host[12].net 	ignoreRatio 	0.48148148148148
scalar DataCentricNet.host[13].net 	NumberOfNeighbours 	10
scalar DataCentricNet.host[13].net 	TotalNeighborLqi 	1137
scalar DataCentricNet.host[13].net 	AverageNeighborLqi 	113.7
scalar DataCentricNet.host[13].net 	MaxNeighborLqi 	199
scalar DataCentricNet.host[13].net 	MinNeighborLqi 	1
scalar DataCentricNet.host[13].net 	TEST_LengthLatestInterestArrivalPeriod 	0
scalar DataCentricNet.host[13].net 	ignoreRatio 	0.6615969581749
scalar DataCentricNet.host[14].net 	NumberOfNeighbours 	8
scalar DataCentricNet.host[14].net 	TotalNeighborLqi 	1165
scalar DataCentricNet.host[14].net 	AverageNeighborLqi 	145.625
scalar DataCentricNet.host[14].net 	MaxNeighborLqi 	227
scalar DataCentricNet.host[14].net 	MinNeighborLqi 	1
scalar DataCentricNet.host[14].net 	TEST_LengthLatestInterestArrivalPeriod 	0
scalar DataCentricNet.host[14].net 	ignoreRatio 	0.69322709163347
scalar DataCentricNet.host[15].net 	NumberOfNeighbours 	7
scalar DataCentricNet.host[15].net 	TotalNeighborLqi 	845
scalar DataCentricNet.host[15].net 	AverageNeighborLqi 	120.71428571429
scalar DataCentricNet.host[15].net 	MaxNeighborLqi 	199
scalar DataCentricNet.host[15].net 	MinNeighborLqi 	21
scalar DataCentricNet.host[15].net 	TEST_LengthLatestInterestArrivalPeriod 	0
scalar DataCentricNet.host[15].net 	ignoreRatio 	0.60693641618497
scalar DataCentricNet.host[16].net 	NumberOfNeighbours 	8
scalar DataCentricNet.host[16].net 	TotalNeighborLqi 	755
scalar DataCentricNet.host[16].net 	AverageNeighborLqi 	94.375
scalar DataCentricNet.host[16].net 	MaxNeighborLqi 	161
scalar DataCentricNet.host[16].net 	MinNeighborLqi 	0
scalar DataCentricNet.host[16].net 	TEST_LengthLatestInterestArrivalPeriod 	0
scalar DataCentricNet.host[16].net 	ignoreRatio 	0.61988304093567
scalar DataCentricNet.host[17].net 	NumberOfNeighbours 	9
scalar DataCentricNet.host[17].net 	TotalNeighborLqi 	1058
scalar DataCentricNet.host[17].net 	AverageNeighborLqi 	117.55555555556
scalar DataCentricNet.host[17].net 	MaxNeighborLqi 	189
scalar DataCentricNet.host[17].net 	MinNeighborLqi 	1
scalar DataCentricNet.host[17].net 	TEST_LengthLatestInterestArrivalPeriod 	0
scalar DataCentricNet.host[17].net 	ignoreRatio 	0.41666666666667
scalar DataCentricNet.host[18].net 	NumberOfNeighbours 	5
scalar DataCentricNet.host[18].net 	TotalNeighborLqi 	829
scalar DataCentricNet.host[18].net 	AverageNeighborLqi 	165.8
scalar DataCentricNet.host[18].net 	MaxNeighborLqi 	187
scalar DataCentricNet.host[18].net 	MinNeighborLqi 	146
scalar DataCentricNet.host[18].net 	TEST_LengthLatestInterestArrivalPeriod 	0
scalar DataCentricNet.host[18].net 	ignoreRatio 	0.73831775700935
scalar DataCentricNet.host[19].net 	NumberOfNeighbours 	7
scalar DataCentricNet.host[19].net 	TotalNeighborLqi 	1020
scalar DataCentricNet.host[19].net 	AverageNeighborLqi 	145.71428571429
scalar DataCentricNet.host[19].net 	MaxNeighborLqi 	199
scalar DataCentricNet.host[19].net 	MinNeighborLqi 	58
scalar DataCentricNet.host[19].net 	TEST_LengthLatestInterestArrivalPeriod 	0
scalar DataCentricNet.host[19].net 	ignoreRatio 	0.55128205128205
scalar DataCentricNet.host[20].net 	NumberOfNeighbours 	8
scalar DataCentricNet.host[20].net 	TotalNeighborLqi 	840
scalar DataCentricNet.host[20].net 	AverageNeighborLqi 	105
scalar DataCentricNet.host[20].net 	MaxNeighborLqi 	207
scalar DataCentricNet.host[20].net 	MinNeighborLqi 	34
scalar DataCentricNet.host[20].net 	TEST_LengthLatestInterestArrivalPeriod 	0
scalar DataCentricNet.host[20].net 	ignoreRatio 	0.56382978723404
scalar DataCentricNet.host[21].net 	NumberOfNeighbours 	5
scalar DataCentricNet.host[21].net 	TotalNeighborLqi 	578
scalar DataCentricNet.host[21].net 	AverageNeighborLqi 	115.6
scalar DataCentricNet.host[21].net 	MaxNeighborLqi 	184
scalar DataCentricNet.host[21].net 	MinNeighborLqi 	11
scalar DataCentricNet.host[21].net 	TEST_LengthLatestInterestArrivalPeriod 	0
scalar DataCentricNet.host[21].net 	ignoreRatio 	0.57241379310345
scalar DataCentricNet.host[22].net 	NumberOfNeighbours 	10
scalar DataCentricNet.host[22].net 	TotalNeighborLqi 	879
scalar DataCentricNet.host[22].net 	AverageNeighborLqi 	87.9
scalar DataCentricNet.host[22].net 	MaxNeighborLqi 	174
scalar DataCentricNet.host[22].net 	MinNeighborLqi 	34
scalar DataCentricNet.host[22].net 	TEST_LengthLatestInterestArrivalPeriod 	0
scalar DataCentricNet.host[22].net 	ignoreRatio 	0.6268221574344
scalar DataCentricNet.host[23].net 	NumberOfNeighbours 	4
scalar DataCentricNet.host[23].net 	TotalNeighborLqi 	701
scalar DataCentricNet.host[23].net 	AverageNeighborLqi 	175.25
scalar DataCentricNet.host[23].net 	MaxNeighborLqi 	212
scalar DataCentricNet.host[23].net 	MinNeighborLqi 	113
scalar DataCentricNet.host[23].net 	TEST_LengthLatestInterestArrivalPeriod 	0
scalar DataCentricNet.host[23].net 	ignoreRatio 	0.5984555984556
scalar DataCentricNet.host[24].net 	NumberOfNeighbours 	10
scalar DataCentricNet.host[24].net 	TotalNeighborLqi 	1379
scalar DataCentricNet.host[24].net 	AverageNeighborLqi 	137.9
scalar DataCentricNet.host[24].net 	MaxNeighborLqi 	238
scalar DataCentricNet.host[24].net 	MinNeighborLqi 	100
scalar DataCentricNet.host[24].net 	TEST_LengthLatestInterestArrivalPeriod 	0
scalar DataCentricNet.host[24].net 	ignoreRatio 	0.67078189300412
scalar DataCentricNet.host[25].net 	NumberOfNeighbours 	6
scalar DataCentricNet.host[25].net 	TotalNeighborLqi 	987
scalar DataCentricNet.host[25].net 	AverageNeighborLqi 	164.5
scalar DataCentricNet.host[25].net 	MaxNeighborLqi 	222
scalar DataCentricNet.host[25].net 	MinNeighborLqi 	118
scalar DataCentricNet.host[25].net 	TEST_LengthLatestInterestArrivalPeriod 	0
scalar DataCentricNet.host[25].net 	ignoreRatio 	0.63076923076923
scalar DataCentricNet.host[26].net 	NumberOfNeighbours 	8
scalar DataCentricNet.host[26].net 	TotalNeighborLqi 	1021
scalar DataCentricNet.host[26].net 	AverageNeighborLqi 	127.625
scalar DataCentricNet.host[26].net 	MaxNeighborLqi 	194
scalar DataCentricNet.host[26].net 	MinNeighborLqi 	36
scalar DataCentricNet.host[26].net 	TEST_LengthLatestInterestArrivalPeriod 	0
scalar DataCentricNet.host[26].net 	ignoreRatio 	0.59493670886076
scalar DataCentricNet.host[27].net 	NumberOfNeighbours 	10
scalar DataCentricNet.host[27].net 	TotalNeighborLqi 	1051
scalar DataCentricNet.host[27].net 	AverageNeighborLqi 	105.1
scalar DataCentricNet.host[27].net 	MaxNeighborLqi 	192
scalar DataCentricNet.host[27].net 	MinNeighborLqi 	1
scalar DataCentricNet.host[27].net 	TEST_LengthLatestInterestArrivalPeriod 	0
scalar DataCentricNet.host[27].net 	ignoreRatio 	0.64426877470356
scalar DataCentricNet.host[28].net 	NumberOfNeighbours 	6
scalar DataCentricNet.host[28].net 	TotalNeighborLqi 	742
scalar DataCentricNet.host[28].net 	AverageNeighborLqi 	123.66666666667
scalar DataCentricNet.host[28].net 	MaxNeighborLqi 	169
scalar DataCentricNet.host[28].net 	MinNeighborLqi 	58
scalar DataCentricNet.host[28].net 	TEST_LengthLatestInterestArrivalPeriod 	0
scalar DataCentricNet.host[28].net 	ignoreRatio 	0.59154929577465
scalar DataCentricNet.host[29].net 	NumberOfNeighbours 	10
scalar DataCentricNet.host[29].net 	TotalNeighborLqi 	776
scalar DataCentricNet.host[29].net 	AverageNeighborLqi 	77.6
scalar DataCentricNet.host[29].net 	MaxNeighborLqi 	184
scalar DataCentricNet.host[29].net 	MinNeighborLqi 	1
scalar DataCentricNet.host[29].net 	TEST_LengthLatestInterestArrivalPeriod 	0
scalar DataCentricNet.host[29].net 	ignoreRatio 	0.63662790697674
scalar DataCentricNet.host[30].net 	NumberOfNeighbours 	8
scalar DataCentricNet.host[30].net 	TotalNeighborLqi 	911
scalar DataCentricNet.host[30].net 	AverageNeighborLqi 	113.875
scalar DataCentricNet.host[30].net 	MaxNeighborLqi 	169
scalar DataCentricNet.host[30].net 	MinNeighborLqi 	72
scalar DataCentricNet.host[30].net 	TEST_LengthLatestInterestArrivalPeriod 	0
scalar DataCentricNet.host[30].net 	ignoreRatio 	0.64227642276423
scalar DataCentricNet.host[31].net 	NumberOfNeighbours 	7
scalar DataCentricNet.host[31].net 	TotalNeighborLqi 	926
scalar DataCentricNet.host[31].net 	AverageNeighborLqi 	132.28571428571
scalar DataCentricNet.host[31].net 	MaxNeighborLqi 	187
scalar DataCentricNet.host[31].net 	MinNeighborLqi 	102
scalar DataCentricNet.host[31].net 	TEST_LengthLatestInterestArrivalPeriod 	0
scalar DataCentricNet.host[31].net 	ignoreRatio 	0.72047244094488
scalar DataCentricNet.host[32].net 	NumberOfNeighbours 	5
scalar DataCentricNet.host[32].net 	TotalNeighborLqi 	790
scalar DataCentricNet.host[32].net 	AverageNeighborLqi 	158
scalar DataCentricNet.host[32].net 	MaxNeighborLqi 	235
scalar DataCentricNet.host[32].net 	MinNeighborLqi 	29
scalar DataCentricNet.host[32].net 	TEST_LengthLatestInterestArrivalPeriod 	0
scalar DataCentricNet.host[32].net 	ignoreRatio 	0.82078853046595
scalar DataCentricNet.host[33].net 	NumberOfNeighbours 	7
scalar DataCentricNet.host[33].net 	TotalNeighborLqi 	968
scalar DataCentricNet.host[33].net 	AverageNeighborLqi 	138.28571428571
scalar DataCentricNet.host[33].net 	MaxNeighborLqi 	220
scalar DataCentricNet.host[33].net 	MinNeighborLqi 	1
scalar DataCentricNet.host[33].net 	TEST_LengthLatestInterestArrivalPeriod 	0
scalar DataCentricNet.host[33].net 	ignoreRatio 	0.71317829457364
scalar DataCentricNet.host[34].net 	NumberOfNeighbours 	10
scalar DataCentricNet.host[34].net 	TotalNeighborLqi 	751
scalar DataCentricNet.host[34].net 	AverageNeighborLqi 	75.1
scalar DataCentricNet.host[34].net 	MaxNeighborLqi 	194
scalar DataCentricNet.host[34].net 	MinNeighborLqi 	16
scalar DataCentricNet.host[34].net 	TEST_LengthLatestInterestArrivalPeriod 	0
scalar DataCentricNet.host[34].net 	ignoreRatio 	0.72459016393443
scalar DataCentricNet.host[35].net 	NumberOfNeighbours 	6
scalar DataCentricNet.host[35].net 	TotalNeighborLqi 	703
scalar DataCentricNet.host[35].net 	AverageNeighborLqi 	117.16666666667
scalar DataCentricNet.host[35].net 	MaxNeighborLqi 	194
scalar DataCentricNet.host[35].net 	MinNeighborLqi 	21
scalar DataCentricNet.host[35].net 	TEST_LengthLatestInterestArrivalPeriod 	0
scalar DataCentricNet.host[35].net 	ignoreRatio 	0.6374269005848
scalar DataCentricNet.host[36].net 	NumberOfNeighbours 	4
scalar DataCentricNet.host[36].net 	TotalNeighborLqi 	710
scalar DataCentricNet.host[36].net 	AverageNeighborLqi 	177.5
scalar DataCentricNet.host[36].net 	MaxNeighborLqi 	222
scalar DataCentricNet.host[36].net 	MinNeighborLqi 	120
scalar DataCentricNet.host[36].net 	TEST_LengthLatestInterestArrivalPeriod 	0
scalar DataCentricNet.host[36].net 	ignoreRatio 	0.55156950672646
scalar DataCentricNet.host[37].net 	NumberOfNeighbours 	6
scalar DataCentricNet.host[37].net 	TotalNeighborLqi 	1043
scalar DataCentricNet.host[37].net 	AverageNeighborLqi 	173.83333333333
scalar DataCentricNet.host[37].net 	MaxNeighborLqi 	248
scalar DataCentricNet.host[37].net 	MinNeighborLqi 	90
scalar DataCentricNet.host[37].net 	TEST_LengthLatestInterestArrivalPeriod 	0
scalar DataCentricNet.host[37].net 	ignoreRatio 	0.67357512953368
scalar DataCentricNet.host[38].net 	NumberOfNeighbours 	5
scalar DataCentricNet.host[38].net 	TotalNeighborLqi 	597
scalar DataCentricNet.host[38].net 	AverageNeighborLqi 	119.4
scalar DataCentricNet.host[38].net 	MaxNeighborLqi 	161
scalar DataCentricNet.host[38].net 	MinNeighborLqi 	72
scalar DataCentricNet.host[38].net 	TEST_LengthLatestInterestArrivalPeriod 	0
scalar DataCentricNet.host[38].net 	ignoreRatio 	0.70769230769231
scalar DataCentricNet.host[39].net 	NumberOfNeighbours 	8
scalar DataCentricNet.host[39].net 	TotalNeighborLqi 	1250
scalar DataCentricNet.host[39].net 	AverageNeighborLqi 	156.25
scalar DataCentricNet.host[39].net 	MaxNeighborLqi 	222
scalar DataCentricNet.host[39].net 	MinNeighborLqi 	108
scalar DataCentricNet.host[39].net 	TEST_LengthLatestInterestArrivalPeriod 	0
scalar DataCentricNet.host[39].net 	ignoreRatio 	0.59217877094972
scalar DataCentricNet.host[40].net 	NumberOfNeighbours 	10
scalar DataCentricNet.host[40].net 	TotalNeighborLqi 	1210
scalar DataCentricNet.host[40].net 	AverageNeighborLqi 	121
scalar DataCentricNet.host[40].net 	MaxNeighborLqi 	248
scalar DataCentricNet.host[40].net 	MinNeighborLqi 	57
scalar DataCentricNet.host[40].net 	TEST_LengthLatestInterestArrivalPeriod 	0
scalar DataCentricNet.host[40].net 	ignoreRatio 	0.64393939393939
scalar DataCentricNet.host[41].net 	NumberOfNeighbours 	10
scalar DataCentricNet.host[41].net 	TotalNeighborLqi 	1187
scalar DataCentricNet.host[41].net 	AverageNeighborLqi 	118.7
scalar DataCentricNet.host[41].net 	MaxNeighborLqi 	217
scalar DataCentricNet.host[41].net 	MinNeighborLqi 	44
scalar DataCentricNet.host[41].net 	TEST_LengthLatestInterestArrivalPeriod 	0
scalar DataCentricNet.host[41].net 	ignoreRatio 	0.59192825112108
scalar DataCentricNet.host[42].net 	NumberOfNeighbours 	9
scalar DataCentricNet.host[42].net 	TotalNeighborLqi 	976
scalar DataCentricNet.host[42].net 	AverageNeighborLqi 	108.44444444444
scalar DataCentricNet.host[42].net 	MaxNeighborLqi 	194
scalar DataCentricNet.host[42].net 	MinNeighborLqi 	1
scalar DataCentricNet.host[42].net 	TEST_LengthLatestInterestArrivalPeriod 	0
scalar DataCentricNet.host[42].net 	ignoreRatio 	0.61290322580645
scalar DataCentricNet.host[43].net 	NumberOfNeighbours 	10
scalar DataCentricNet.host[43].net 	TotalNeighborLqi 	834
scalar DataCentricNet.host[43].net 	AverageNeighborLqi 	83.4
scalar DataCentricNet.host[43].net 	MaxNeighborLqi 	204
scalar DataCentricNet.host[43].net 	MinNeighborLqi 	1
scalar DataCentricNet.host[43].net 	TEST_LengthLatestInterestArrivalPeriod 	0
scalar DataCentricNet.host[43].net 	ignoreRatio 	0.69578313253012
scalar DataCentricNet.host[44].net 	NumberOfNeighbours 	8
scalar DataCentricNet.host[44].net 	TotalNeighborLqi 	1181
scalar DataCentricNet.host[44].net 	AverageNeighborLqi 	147.625
scalar DataCentricNet.host[44].net 	MaxNeighborLqi 	176
scalar DataCentricNet.host[44].net 	MinNeighborLqi 	120
scalar DataCentricNet.host[44].net 	TEST_LengthLatestInterestArrivalPeriod 	0
scalar DataCentricNet.host[44].net 	ignoreRatio 	0.65040650406504
scalar DataCentricNet.host[45].net 	NumberOfNeighbours 	8
scalar DataCentricNet.host[45].net 	TotalNeighborLqi 	1062
scalar DataCentricNet.host[45].net 	AverageNeighborLqi 	132.75
scalar DataCentricNet.host[45].net 	MaxNeighborLqi 	184
scalar DataCentricNet.host[45].net 	MinNeighborLqi 	1
scalar DataCentricNet.host[45].net 	TEST_LengthLatestInterestArrivalPeriod 	0
scalar DataCentricNet.host[45].net 	ignoreRatio 	0.68027210884354
scalar DataCentricNet.host[46].net 	NumberOfNeighbours 	10
scalar DataCentricNet.host[46].net 	TotalNeighborLqi 	1063
scalar DataCentricNet.host[46].net 	AverageNeighborLqi 	106.3
scalar DataCentricNet.host[46].net 	MaxNeighborLqi 	202
scalar DataCentricNet.host[46].net 	MinNeighborLqi 	11
scalar DataCentricNet.host[46].net 	TEST_LengthLatestInterestArrivalPeriod 	0
scalar DataCentricNet.host[46].net 	ignoreRatio 	0.62385321100917
scalar DataCentricNet.host[47].net 	NumberOfNeighbours 	10
scalar DataCentricNet.host[47].net 	TotalNeighborLqi 	1212
scalar DataCentricNet.host[47].net 	AverageNeighborLqi 	121.2
scalar DataCentricNet.host[47].net 	MaxNeighborLqi 	212
scalar DataCentricNet.host[47].net 	MinNeighborLqi 	57
scalar DataCentricNet.host[47].net 	TEST_LengthLatestInterestArrivalPeriod 	0
scalar DataCentricNet.host[47].net 	ignoreRatio 	0.59459459459459
scalar DataCentricNet.host[48].net 	NumberOfNeighbours 	10
scalar DataCentricNet.host[48].net 	TotalNeighborLqi 	1141
scalar DataCentricNet.host[48].net 	AverageNeighborLqi 	114.1
scalar DataCentricNet.host[48].net 	MaxNeighborLqi 	189
scalar DataCentricNet.host[48].net 	MinNeighborLqi 	1
scalar DataCentricNet.host[48].net 	TEST_LengthLatestInterestArrivalPeriod 	0
scalar DataCentricNet.host[48].net 	ignoreRatio 	0.69642857142857
scalar DataCentricNet.host[49].net 	NumberOfNeighbours 	5
scalar DataCentricNet.host[49].net 	TotalNeighborLqi 	950
scalar DataCentricNet.host[49].net 	AverageNeighborLqi 	190
scalar DataCentricNet.host[49].net 	MaxNeighborLqi 	207
scalar DataCentricNet.host[49].net 	MinNeighborLqi 	169
scalar DataCentricNet.host[49].net 	TEST_LengthLatestInterestArrivalPeriod 	0
scalar DataCentricNet.host[49].net 	ignoreRatio 	0.59365079365079
scalar DataCentricNet.host[50].net 	NumberOfNeighbours 	10
scalar DataCentricNet.host[50].net 	TotalNeighborLqi 	1138
scalar DataCentricNet.host[50].net 	AverageNeighborLqi 	113.8
scalar DataCentricNet.host[50].net 	MaxNeighborLqi 	171
scalar DataCentricNet.host[50].net 	MinNeighborLqi 	62
scalar DataCentricNet.host[50].net 	TEST_LengthLatestInterestArrivalPeriod 	0
scalar DataCentricNet.host[50].net 	ignoreRatio 	0.60262008733624
scalar DataCentricNet.host[51].net 	NumberOfNeighbours 	10
scalar DataCentricNet.host[51].net 	TotalNeighborLqi 	1127
scalar DataCentricNet.host[51].net 	AverageNeighborLqi 	112.7
scalar DataCentricNet.host[51].net 	MaxNeighborLqi 	194
scalar DataCentricNet.host[51].net 	MinNeighborLqi 	1
scalar DataCentricNet.host[51].net 	TEST_LengthLatestInterestArrivalPeriod 	0
scalar DataCentricNet.host[51].net 	ignoreRatio 	0.69117647058824
scalar DataCentricNet.host[52].net 	NumberOfNeighbours 	7
scalar DataCentricNet.host[52].net 	TotalNeighborLqi 	943
scalar DataCentricNet.host[52].net 	AverageNeighborLqi 	134.71428571429
scalar DataCentricNet.host[52].net 	MaxNeighborLqi 	202
scalar DataCentricNet.host[52].net 	MinNeighborLqi 	1
scalar DataCentricNet.host[52].net 	TEST_LengthLatestInterestArrivalPeriod 	0
scalar DataCentricNet.host[52].net 	ignoreRatio 	0.66523605150215
scalar DataCentricNet.host[53].net 	NumberOfNeighbours 	10
scalar DataCentricNet.host[53].net 	TotalNeighborLqi 	958
scalar DataCentricNet.host[53].net 	AverageNeighborLqi 	95.8
scalar DataCentricNet.host[53].net 	MaxNeighborLqi 	174
scalar DataCentricNet.host[53].net 	MinNeighborLqi 	1
scalar DataCentricNet.host[53].net 	TEST_LengthLatestInterestArrivalPeriod 	0
scalar DataCentricNet.host[53].net 	ignoreRatio 	0.70508474576271
scalar DataCentricNet.host[54].net 	NumberOfNeighbours 	11
scalar DataCentricNet.host[54].net 	TotalNeighborLqi 	894
scalar DataCentricNet.host[54].net 	AverageNeighborLqi 	81.272727272727
scalar DataCentricNet.host[54].net 	MaxNeighborLqi 	176
scalar DataCentricNet.host[54].net 	MinNeighborLqi 	1
scalar DataCentricNet.host[54].net 	TEST_LengthLatestInterestArrivalPeriod 	0
scalar DataCentricNet.host[54].net 	ignoreRatio 	0.66558441558442
scalar DataCentricNet.host[55].net 	NumberOfNeighbours 	10
scalar DataCentricNet.host[55].net 	TotalNeighborLqi 	1069
scalar DataCentricNet.host[55].net 	AverageNeighborLqi 	106.9
scalar DataCentricNet.host[55].net 	MaxNeighborLqi 	164
scalar DataCentricNet.host[55].net 	MinNeighborLqi 	1
scalar DataCentricNet.host[55].net 	TEST_LengthLatestInterestArrivalPeriod 	0
scalar DataCentricNet.host[55].net 	ignoreRatio 	0.64566929133858
scalar DataCentricNet.host[56].net 	NumberOfNeighbours 	10
scalar DataCentricNet.host[56].net 	TotalNeighborLqi 	1038
scalar DataCentricNet.host[56].net 	AverageNeighborLqi 	103.8
scalar DataCentricNet.host[56].net 	MaxNeighborLqi 	204
scalar DataCentricNet.host[56].net 	MinNeighborLqi 	1
scalar DataCentricNet.host[56].net 	TEST_LengthLatestInterestArrivalPeriod 	0
scalar DataCentricNet.host[56].net 	ignoreRatio 	0.74223602484472
scalar DataCentricNet.host[57].net 	NumberOfNeighbours 	7
scalar DataCentricNet.host[57].net 	TotalNeighborLqi 	971
scalar DataCentricNet.host[57].net 	AverageNeighborLqi 	138.71428571429
scalar DataCentricNet.host[57].net 	MaxNeighborLqi 	215
scalar DataCentricNet.host[57].net 	MinNeighborLqi 	74
scalar DataCentricNet.host[57].net 	TEST_LengthLatestInterestArrivalPeriod 	0
scalar DataCentricNet.host[57].net 	ignoreRatio 	0.49685534591195
scalar DataCentricNet.host[58].net 	NumberOfNeighbours 	10
scalar DataCentricNet.host[58].net 	TotalNeighborLqi 	1214
scalar DataCentricNet.host[58].net 	AverageNeighborLqi 	121.4
scalar DataCentricNet.host[58].net 	MaxNeighborLqi 	194
scalar DataCentricNet.host[58].net 	MinNeighborLqi 	8
scalar DataCentricNet.host[58].net 	TEST_LengthLatestInterestArrivalPeriod 	0
scalar DataCentricNet.host[58].net 	ignoreRatio 	0.6504854368932
scalar DataCentricNet.host[59].net 	NumberOfNeighbours 	7
scalar DataCentricNet.host[59].net 	TotalNeighborLqi 	940
scalar DataCentricNet.host[59].net 	AverageNeighborLqi 	134.28571428571
scalar DataCentricNet.host[59].net 	MaxNeighborLqi 	212
scalar DataCentricNet.host[59].net 	MinNeighborLqi 	6
scalar DataCentricNet.host[59].net 	TEST_LengthLatestInterestArrivalPeriod 	0
scalar DataCentricNet.host[59].net 	ignoreRatio 	0.59032258064516
scalar DataCentricNet.host[60].net 	NumberOfNeighbours 	10
scalar DataCentricNet.host[60].net 	TotalNeighborLqi 	657
scalar DataCentricNet.host[60].net 	AverageNeighborLqi 	65.7
scalar DataCentricNet.host[60].net 	MaxNeighborLqi 	171
scalar DataCentricNet.host[60].net 	MinNeighborLqi 	1
scalar DataCentricNet.host[60].net 	TEST_LengthLatestInterestArrivalPeriod 	0
scalar DataCentricNet.host[60].net 	ignoreRatio 	0.66279069767442
scalar DataCentricNet.host[61].net 	NumberOfNeighbours 	10
scalar DataCentricNet.host[61].net 	TotalNeighborLqi 	857
scalar DataCentricNet.host[61].net 	AverageNeighborLqi 	85.7
scalar DataCentricNet.host[61].net 	MaxNeighborLqi 	189
scalar DataCentricNet.host[61].net 	MinNeighborLqi 	6
scalar DataCentricNet.host[61].net 	TEST_LengthLatestInterestArrivalPeriod 	0
scalar DataCentricNet.host[61].net 	ignoreRatio 	0.60828025477707
scalar DataCentricNet.host[62].net 	NumberOfNeighbours 	6
scalar DataCentricNet.host[62].net 	TotalNeighborLqi 	1003
scalar DataCentricNet.host[62].net 	AverageNeighborLqi 	167.16666666667
scalar DataCentricNet.host[62].net 	MaxNeighborLqi 	240
scalar DataCentricNet.host[62].net 	MinNeighborLqi 	113
scalar DataCentricNet.host[62].net 	TEST_LengthLatestInterestArrivalPeriod 	0
scalar DataCentricNet.host[62].net 	ignoreRatio 	0.64363636363636
scalar DataCentricNet.host[63].net 	NumberOfNeighbours 	10
scalar DataCentricNet.host[63].net 	TotalNeighborLqi 	1294
scalar DataCentricNet.host[63].net 	AverageNeighborLqi 	129.4
scalar DataCentricNet.host[63].net 	MaxNeighborLqi 	230
scalar DataCentricNet.host[63].net 	MinNeighborLqi 	77
scalar DataCentricNet.host[63].net 	TEST_LengthLatestInterestArrivalPeriod 	0
scalar DataCentricNet.host[63].net 	ignoreRatio 	0.66666666666667
scalar DataCentricNet.host[64].net 	NumberOfNeighbours 	9
scalar DataCentricNet.host[64].net 	TotalNeighborLqi 	1124
scalar DataCentricNet.host[64].net 	AverageNeighborLqi 	124.88888888889
scalar DataCentricNet.host[64].net 	MaxNeighborLqi 	181
scalar DataCentricNet.host[64].net 	MinNeighborLqi 	6
scalar DataCentricNet.host[64].net 	TEST_LengthLatestInterestArrivalPeriod 	0
scalar DataCentricNet.host[64].net 	ignoreRatio 	0.51779935275081
scalar DataCentricNet.host[65].net 	NumberOfNeighbours 	8
scalar DataCentricNet.host[65].net 	TotalNeighborLqi 	1177
scalar DataCentricNet.host[65].net 	AverageNeighborLqi 	147.125
scalar DataCentricNet.host[65].net 	MaxNeighborLqi 	248
scalar DataCentricNet.host[65].net 	MinNeighborLqi 	59
scalar DataCentricNet.host[65].net 	TEST_LengthLatestInterestArrivalPeriod 	0
scalar DataCentricNet.host[65].net 	ignoreRatio 	0.74339622641509
scalar DataCentricNet.host[66].net 	NumberOfNeighbours 	11
scalar DataCentricNet.host[66].net 	TotalNeighborLqi 	1776
scalar DataCentricNet.host[66].net 	AverageNeighborLqi 	161.45454545455
scalar DataCentricNet.host[66].net 	MaxNeighborLqi 	235
scalar DataCentricNet.host[66].net 	MinNeighborLqi 	108
scalar DataCentricNet.host[66].net 	TEST_LengthLatestInterestArrivalPeriod 	0
scalar DataCentricNet.host[66].net 	ignoreRatio 	0.67537313432836
scalar DataCentricNet.host[67].net 	NumberOfNeighbours 	6
scalar DataCentricNet.host[67].net 	TotalNeighborLqi 	837
scalar DataCentricNet.host[67].net 	AverageNeighborLqi 	139.5
scalar DataCentricNet.host[67].net 	MaxNeighborLqi 	204
scalar DataCentricNet.host[67].net 	MinNeighborLqi 	6
scalar DataCentricNet.host[67].net 	TEST_LengthLatestInterestArrivalPeriod 	0
scalar DataCentricNet.host[67].net 	ignoreRatio 	0.65862068965517
scalar DataCentricNet.host[68].net 	NumberOfNeighbours 	10
scalar DataCentricNet.host[68].net 	TotalNeighborLqi 	1279
scalar DataCentricNet.host[68].net 	AverageNeighborLqi 	127.9
scalar DataCentricNet.host[68].net 	MaxNeighborLqi 	189
scalar DataCentricNet.host[68].net 	MinNeighborLqi 	8
scalar DataCentricNet.host[68].net 	TEST_LengthLatestInterestArrivalPeriod 	0
scalar DataCentricNet.host[68].net 	ignoreRatio 	0.6039603960396
scalar DataCentricNet.host[69].net 	NumberOfNeighbours 	10
scalar DataCentricNet.host[69].net 	TotalNeighborLqi 	1123
scalar DataCentricNet.host[69].net 	AverageNeighborLqi 	112.3
scalar DataCentricNet.host[69].net 	MaxNeighborLqi 	194
scalar DataCentricNet.host[69].net 	MinNeighborLqi 	34
scalar DataCentricNet.host[69].net 	TEST_LengthLatestInterestArrivalPeriod 	0
scalar DataCentricNet.host[69].net 	ignoreRatio 	0.73986486486486
scalar DataCentricNet.host[70].net 	NumberOfNeighbours 	7
scalar DataCentricNet.host[70].net 	TotalNeighborLqi 	712
scalar DataCentricNet.host[70].net 	AverageNeighborLqi 	101.71428571429
scalar DataCentricNet.host[70].net 	MaxNeighborLqi 	164
scalar DataCentricNet.host[70].net 	MinNeighborLqi 	9
scalar DataCentricNet.host[70].net 	TEST_LengthLatestInterestArrivalPeriod 	0
scalar DataCentricNet.host[70].net 	ignoreRatio 	0.62962962962963
scalar DataCentricNet.host[71].net 	NumberOfNeighbours 	5
scalar DataCentricNet.host[71].net 	TotalNeighborLqi 	940
scalar DataCentricNet.host[71].net 	AverageNeighborLqi 	188
scalar DataCentricNet.host[71].net 	MaxNeighborLqi 	245
scalar DataCentricNet.host[71].net 	MinNeighborLqi 	138
scalar DataCentricNet.host[71].net 	TEST_LengthLatestInterestArrivalPeriod 	0
scalar DataCentricNet.host[71].net 	ignoreRatio 	0.65638766519824
scalar DataCentricNet.host[72].net 	NumberOfNeighbours 	6
scalar DataCentricNet.host[72].net 	TotalNeighborLqi 	702
scalar DataCentricNet.host[72].net 	AverageNeighborLqi 	117
scalar DataCentricNet.host[72].net 	MaxNeighborLqi 	156
scalar DataCentricNet.host[72].net 	MinNeighborLqi 	82
scalar DataCentricNet.host[72].net 	TEST_LengthLatestInterestArrivalPeriod 	0
scalar DataCentricNet.host[72].net 	ignoreRatio 	0.55147058823529
scalar DataCentricNet.host[73].net 	NumberOfNeighbours 	10
scalar DataCentricNet.host[73].net 	TotalNeighborLqi 	1311
scalar DataCentricNet.host[73].net 	AverageNeighborLqi 	131.1
scalar DataCentricNet.host[73].net 	MaxNeighborLqi 	220
scalar DataCentricNet.host[73].net 	MinNeighborLqi 	67
scalar DataCentricNet.host[73].net 	TEST_LengthLatestInterestArrivalPeriod 	0
scalar DataCentricNet.host[73].net 	ignoreRatio 	0.67484662576687
scalar DataCentricNet.host[74].net 	NumberOfNeighbours 	10
scalar DataCentricNet.host[74].net 	TotalNeighborLqi 	1201
scalar DataCentricNet.host[74].net 	AverageNeighborLqi 	120.1
scalar DataCentricNet.host[74].net 	MaxNeighborLqi 	233
scalar DataCentricNet.host[74].net 	MinNeighborLqi 	44
scalar DataCentricNet.host[74].net 	TEST_LengthLatestInterestArrivalPeriod 	0
scalar DataCentricNet.host[74].net 	ignoreRatio 	0.63052208835341
scalar DataCentricNet.host[75].net 	NumberOfNeighbours 	9
scalar DataCentricNet.host[75].net 	TotalNeighborLqi 	1183
scalar DataCentricNet.host[75].net 	AverageNeighborLqi 	131.44444444444
scalar DataCentricNet.host[75].net 	MaxNeighborLqi 	253
scalar DataCentricNet.host[75].net 	MinNeighborLqi 	36
scalar DataCentricNet.host[75].net 	TEST_LengthLatestInterestArrivalPeriod 	0
scalar DataCentricNet.host[75].net 	ignoreRatio 	0.53684210526316
scalar DataCentricNet.host[76].net 	NumberOfNeighbours 	5
scalar DataCentricNet.host[76].net 	TotalNeighborLqi 	750
scalar DataCentricNet.host[76].net 	AverageNeighborLqi 	150
scalar DataCentricNet.host[76].net 	MaxNeighborLqi 	238
scalar DataCentricNet.host[76].net 	MinNeighborLqi 	29
scalar DataCentricNet.host[76].net 	TEST_LengthLatestInterestArrivalPeriod 	0
scalar DataCentricNet.host[76].net 	ignoreRatio 	0.74897119341564
scalar DataCentricNet.host[77].net 	NumberOfNeighbours 	10
scalar DataCentricNet.host[77].net 	TotalNeighborLqi 	1401
scalar DataCentricNet.host[77].net 	AverageNeighborLqi 	140.1
scalar DataCentricNet.host[77].net 	MaxNeighborLqi 	207
scalar DataCentricNet.host[77].net 	MinNeighborLqi 	74
scalar DataCentricNet.host[77].net 	TEST_LengthLatestInterestArrivalPeriod 	0
scalar DataCentricNet.host[77].net 	ignoreRatio 	0.55598455598456
scalar DataCentricNet.host[78].net 	NumberOfNeighbours 	4
scalar DataCentricNet.host[78].net 	TotalNeighborLqi 	559
scalar DataCentricNet.host[78].net 	AverageNeighborLqi 	139.75
scalar DataCentricNet.host[78].net 	MaxNeighborLqi 	182
scalar DataCentricNet.host[78].net 	MinNeighborLqi 	44
scalar DataCentricNet.host[78].net 	TEST_LengthLatestInterestArrivalPeriod 	0
scalar DataCentricNet.host[78].net 	ignoreRatio 	0.71069182389937
scalar DataCentricNet.host[79].net 	NumberOfNeighbours 	8
scalar DataCentricNet.host[79].net 	TotalNeighborLqi 	1021
scalar DataCentricNet.host[79].net 	AverageNeighborLqi 	127.625
scalar DataCentricNet.host[79].net 	MaxNeighborLqi 	189
scalar DataCentricNet.host[79].net 	MinNeighborLqi 	1
scalar DataCentricNet.host[79].net 	TEST_LengthLatestInterestArrivalPeriod 	0
scalar DataCentricNet.host[79].net 	ignoreRatio 	0.63786008230453
scalar DataCentricNet.host[80].net 	NumberOfNeighbours 	5
scalar DataCentricNet.host[80].net 	TotalNeighborLqi 	580
scalar DataCentricNet.host[80].net 	AverageNeighborLqi 	116
scalar DataCentricNet.host[80].net 	MaxNeighborLqi 	176
scalar DataCentricNet.host[80].net 	MinNeighborLqi 	74
scalar DataCentricNet.host[80].net 	TEST_LengthLatestInterestArrivalPeriod 	0
scalar DataCentricNet.host[80].net 	ignoreRatio 	0.55244755244755
scalar DataCentricNet.host[81].net 	NumberOfNeighbours 	10
scalar DataCentricNet.host[81].net 	TotalNeighborLqi 	1469
scalar DataCentricNet.host[81].net 	AverageNeighborLqi 	146.9
scalar DataCentricNet.host[81].net 	MaxNeighborLqi 	217
scalar DataCentricNet.host[81].net 	MinNeighborLqi 	57
scalar DataCentricNet.host[81].net 	TEST_LengthLatestInterestArrivalPeriod 	0
scalar DataCentricNet.host[81].net 	ignoreRatio 	0.6234309623431
scalar DataCentricNet.host[82].net 	NumberOfNeighbours 	5
scalar DataCentricNet.host[82].net 	TotalNeighborLqi 	698
scalar DataCentricNet.host[82].net 	AverageNeighborLqi 	139.6
scalar DataCentricNet.host[82].net 	MaxNeighborLqi 	235
scalar DataCentricNet.host[82].net 	MinNeighborLqi 	67
scalar DataCentricNet.host[82].net 	TEST_LengthLatestInterestArrivalPeriod 	0
scalar DataCentricNet.host[82].net 	ignoreRatio 	0.44761904761905
scalar DataCentricNet.host[83].net 	NumberOfNeighbours 	10
scalar DataCentricNet.host[83].net 	TotalNeighborLqi 	647
scalar DataCentricNet.host[83].net 	AverageNeighborLqi 	64.7
scalar DataCentricNet.host[83].net 	MaxNeighborLqi 	187
scalar DataCentricNet.host[83].net 	MinNeighborLqi 	1
scalar DataCentricNet.host[83].net 	TEST_LengthLatestInterestArrivalPeriod 	0
scalar DataCentricNet.host[83].net 	ignoreRatio 	0.67741935483871
scalar DataCentricNet.host[84].net 	NumberOfNeighbours 	9
scalar DataCentricNet.host[84].net 	TotalNeighborLqi 	1181
scalar DataCentricNet.host[84].net 	AverageNeighborLqi 	131.22222222222
scalar DataCentricNet.host[84].net 	MaxNeighborLqi 	174
scalar DataCentricNet.host[84].net 	MinNeighborLqi 	1
scalar DataCentricNet.host[84].net 	TEST_LengthLatestInterestArrivalPeriod 	0
scalar DataCentricNet.host[84].net 	ignoreRatio 	0.64169381107492
scalar DataCentricNet.host[85].net 	NumberOfNeighbours 	10
scalar DataCentricNet.host[85].net 	TotalNeighborLqi 	1107
scalar DataCentricNet.host[85].net 	AverageNeighborLqi 	110.7
scalar DataCentricNet.host[85].net 	MaxNeighborLqi 	210
scalar DataCentricNet.host[85].net 	MinNeighborLqi 	1
scalar DataCentricNet.host[85].net 	TEST_LengthLatestInterestArrivalPeriod 	0
scalar DataCentricNet.host[85].net 	ignoreRatio 	0.7218045112782
scalar DataCentricNet.host[86].net 	NumberOfNeighbours 	11
scalar DataCentricNet.host[86].net 	TotalNeighborLqi 	1371
scalar DataCentricNet.host[86].net 	AverageNeighborLqi 	124.63636363636
scalar DataCentricNet.host[86].net 	MaxNeighborLqi 	238
scalar DataCentricNet.host[86].net 	MinNeighborLqi 	0
scalar DataCentricNet.host[86].net 	TEST_LengthLatestInterestArrivalPeriod 	0
scalar DataCentricNet.host[86].net 	ignoreRatio 	0.57916666666667
scalar DataCentricNet.host[87].net 	NumberOfNeighbours 	7
scalar DataCentricNet.host[87].net 	TotalNeighborLqi 	925
scalar DataCentricNet.host[87].net 	AverageNeighborLqi 	132.14285714286
scalar DataCentricNet.host[87].net 	MaxNeighborLqi 	212
scalar DataCentricNet.host[87].net 	MinNeighborLqi 	6
scalar DataCentricNet.host[87].net 	TEST_LengthLatestInterestArrivalPeriod 	0
scalar DataCentricNet.host[87].net 	ignoreRatio 	0.6969696969697
scalar DataCentricNet.host[88].net 	NumberOfNeighbours 	7
scalar DataCentricNet.host[88].net 	TotalNeighborLqi 	1068
scalar DataCentricNet.host[88].net 	AverageNeighborLqi 	152.57142857143
scalar DataCentricNet.host[88].net 	MaxNeighborLqi 	202
scalar DataCentricNet.host[88].net 	MinNeighborLqi 	90
scalar DataCentricNet.host[88].net 	TEST_LengthLatestInterestArrivalPeriod 	0
scalar DataCentricNet.host[88].net 	ignoreRatio 	0.6875
scalar DataCentricNet.host[89].net 	NumberOfNeighbours 	9
scalar DataCentricNet.host[89].net 	TotalNeighborLqi 	1038
scalar DataCentricNet.host[89].net 	AverageNeighborLqi 	115.33333333333
scalar DataCentricNet.host[89].net 	MaxNeighborLqi 	176
scalar DataCentricNet.host[89].net 	MinNeighborLqi 	1
scalar DataCentricNet.host[89].net 	TEST_LengthLatestInterestArrivalPeriod 	0
scalar DataCentricNet.host[89].net 	ignoreRatio 	0.56967213114754
scalar DataCentricNet.host[90].net 	NumberOfNeighbours 	5
scalar DataCentricNet.host[90].net 	TotalNeighborLqi 	569
scalar DataCentricNet.host[90].net 	AverageNeighborLqi 	113.8
scalar DataCentricNet.host[90].net 	MaxNeighborLqi 	182
scalar DataCentricNet.host[90].net 	MinNeighborLqi 	29
scalar DataCentricNet.host[90].net 	TEST_LengthLatestInterestArrivalPeriod 	0
scalar DataCentricNet.host[90].net 	ignoreRatio 	0.68156424581006
scalar DataCentricNet.host[91].net 	NumberOfNeighbours 	8
scalar DataCentricNet.host[91].net 	TotalNeighborLqi 	959
scalar DataCentricNet.host[91].net 	AverageNeighborLqi 	119.875
scalar DataCentricNet.host[91].net 	MaxNeighborLqi 	187
scalar DataCentricNet.host[91].net 	MinNeighborLqi 	1
scalar DataCentricNet.host[91].net 	TEST_LengthLatestInterestArrivalPeriod 	0
scalar DataCentricNet.host[91].net 	ignoreRatio 	0.55108359133127
scalar DataCentricNet.host[92].net 	NumberOfNeighbours 	10
scalar DataCentricNet.host[92].net 	TotalNeighborLqi 	1309
scalar DataCentricNet.host[92].net 	AverageNeighborLqi 	130.9
scalar DataCentricNet.host[92].net 	MaxNeighborLqi 	215
scalar DataCentricNet.host[92].net 	MinNeighborLqi 	41
scalar DataCentricNet.host[92].net 	TEST_LengthLatestInterestArrivalPeriod 	0
scalar DataCentricNet.host[92].net 	ignoreRatio 	0.71019108280255
scalar DataCentricNet.host[93].net 	NumberOfNeighbours 	10
scalar DataCentricNet.host[93].net 	TotalNeighborLqi 	1142
scalar DataCentricNet.host[93].net 	AverageNeighborLqi 	114.2
scalar DataCentricNet.host[93].net 	MaxNeighborLqi 	217
scalar DataCentricNet.host[93].net 	MinNeighborLqi 	1
scalar DataCentricNet.host[93].net 	TEST_LengthLatestInterestArrivalPeriod 	0
scalar DataCentricNet.host[93].net 	ignoreRatio 	0.61933534743202
scalar DataCentricNet.host[94].net 	NumberOfNeighbours 	10
scalar DataCentricNet.host[94].net 	TotalNeighborLqi 	1023
scalar DataCentricNet.host[94].net 	AverageNeighborLqi 	102.3
scalar DataCentricNet.host[94].net 	MaxNeighborLqi 	192
scalar DataCentricNet.host[94].net 	MinNeighborLqi 	6
scalar DataCentricNet.host[94].net 	TEST_LengthLatestInterestArrivalPeriod 	0
scalar DataCentricNet.host[94].net 	ignoreRatio 	0.59756097560976
scalar DataCentricNet.host[95].net 	NumberOfNeighbours 	10
scalar DataCentricNet.host[95].net 	TotalNeighborLqi 	985
scalar DataCentricNet.host[95].net 	AverageNeighborLqi 	98.5
scalar DataCentricNet.host[95].net 	MaxNeighborLqi 	222
scalar DataCentricNet.host[95].net 	MinNeighborLqi 	11
scalar DataCentricNet.host[95].net 	TEST_LengthLatestInterestArrivalPeriod 	0
scalar DataCentricNet.host[95].net 	ignoreRatio 	0.63157894736842
scalar DataCentricNet.host[96].net 	NumberOfNeighbours 	6
scalar DataCentricNet.host[96].net 	TotalNeighborLqi 	700
scalar DataCentricNet.host[96].net 	AverageNeighborLqi 	116.66666666667
scalar DataCentricNet.host[96].net 	MaxNeighborLqi 	156
scalar DataCentricNet.host[96].net 	MinNeighborLqi 	64
scalar DataCentricNet.host[96].net 	TEST_LengthLatestInterestArrivalPeriod 	0
scalar DataCentricNet.host[96].net 	ignoreRatio 	0.68227424749164
scalar DataCentricNet.host[97].net 	NumberOfNeighbours 	8
scalar DataCentricNet.host[97].net 	TotalNeighborLqi 	857
scalar DataCentricNet.host[97].net 	AverageNeighborLqi 	107.125
scalar DataCentricNet.host[97].net 	MaxNeighborLqi 	166
scalar DataCentricNet.host[97].net 	MinNeighborLqi 	1
scalar DataCentricNet.host[97].net 	TEST_LengthLatestInterestArrivalPeriod 	0
scalar DataCentricNet.host[97].net 	ignoreRatio 	0.74368231046931
scalar DataCentricNet.host[98].net 	NumberOfNeighbours 	10
scalar DataCentricNet.host[98].net 	TotalNeighborLqi 	921
scalar DataCentricNet.host[98].net 	AverageNeighborLqi 	92.1
scalar DataCentricNet.host[98].net 	MaxNeighborLqi 	192
scalar DataCentricNet.host[98].net 	MinNeighborLqi 	1
scalar DataCentricNet.host[98].net 	TEST_LengthLatestInterestArrivalPeriod 	0
scalar DataCentricNet.host[98].net 	ignoreRatio 	0.64670658682635
scalar DataCentricNet.host[99].net 	NumberOfNeighbours 	10
scalar DataCentricNet.host[99].net 	TotalNeighborLqi 	1473
scalar DataCentricNet.host[99].net 	AverageNeighborLqi 	147.3
scalar DataCentricNet.host[99].net 	MaxNeighborLqi 	189
scalar DataCentricNet.host[99].net 	MinNeighborLqi 	90
scalar DataCentricNet.host[99].net 	TEST_LengthLatestInterestArrivalPeriod 	0
scalar DataCentricNet.host[99].net 	ignoreRatio 	0.68
scalar DataCentricNet.host[100].net 	NumberOfNeighbours 	10
scalar DataCentricNet.host[100].net 	TotalNeighborLqi 	931
scalar DataCentricNet.host[100].net 	AverageNeighborLqi 	93.1
scalar DataCentricNet.host[100].net 	MaxNeighborLqi 	184
scalar DataCentricNet.host[100].net 	MinNeighborLqi 	11
scalar DataCentricNet.host[100].net 	TEST_LengthLatestInterestArrivalPeriod 	0
scalar DataCentricNet.host[100].net 	ignoreRatio 	0.68307692307692
scalar DataCentricNet.host[101].net 	NumberOfNeighbours 	5
scalar DataCentricNet.host[101].net 	TotalNeighborLqi 	783
scalar DataCentricNet.host[101].net 	AverageNeighborLqi 	156.6
scalar DataCentricNet.host[101].net 	MaxNeighborLqi 	192
scalar DataCentricNet.host[101].net 	MinNeighborLqi 	74
scalar DataCentricNet.host[101].net 	TEST_LengthLatestInterestArrivalPeriod 	0
scalar DataCentricNet.host[101].net 	ignoreRatio 	0.49652777777778
scalar DataCentricNet.host[102].net 	NumberOfNeighbours 	7
scalar DataCentricNet.host[102].net 	TotalNeighborLqi 	1010
scalar DataCentricNet.host[102].net 	AverageNeighborLqi 	144.28571428571
scalar DataCentricNet.host[102].net 	MaxNeighborLqi 	189
scalar DataCentricNet.host[102].net 	MinNeighborLqi 	102
scalar DataCentricNet.host[102].net 	TEST_LengthLatestInterestArrivalPeriod 	0
scalar DataCentricNet.host[102].net 	ignoreRatio 	0.63673469387755
scalar DataCentricNet.host[103].net 	NumberOfNeighbours 	10
scalar DataCentricNet.host[103].net 	TotalNeighborLqi 	1175
scalar DataCentricNet.host[103].net 	AverageNeighborLqi 	117.5
scalar DataCentricNet.host[103].net 	MaxNeighborLqi 	192
scalar DataCentricNet.host[103].net 	MinNeighborLqi 	41
scalar DataCentricNet.host[103].net 	TEST_LengthLatestInterestArrivalPeriod 	0
scalar DataCentricNet.host[103].net 	ignoreRatio 	0.75226586102719
scalar DataCentricNet.host[104].net 	NumberOfNeighbours 	8
scalar DataCentricNet.host[104].net 	TotalNeighborLqi 	1108
scalar DataCentricNet.host[104].net 	AverageNeighborLqi 	138.5
scalar DataCentricNet.host[104].net 	MaxNeighborLqi 	187
scalar DataCentricNet.host[104].net 	MinNeighborLqi 	87
scalar DataCentricNet.host[104].net 	TEST_LengthLatestInterestArrivalPeriod 	0
scalar DataCentricNet.host[104].net 	ignoreRatio 	0.72847682119205
scalar DataCentricNet.host[105].net 	NumberOfNeighbours 	4
scalar DataCentricNet.host[105].net 	TotalNeighborLqi 	701
scalar DataCentricNet.host[105].net 	AverageNeighborLqi 	175.25
scalar DataCentricNet.host[105].net 	MaxNeighborLqi 	210
scalar DataCentricNet.host[105].net 	MinNeighborLqi 	153
scalar DataCentricNet.host[105].net 	TEST_LengthLatestInterestArrivalPeriod 	0
scalar DataCentricNet.host[105].net 	ignoreRatio 	0.73762376237624
scalar DataCentricNet.host[106].net 	NumberOfNeighbours 	10
scalar DataCentricNet.host[106].net 	TotalNeighborLqi 	1174
scalar DataCentricNet.host[106].net 	AverageNeighborLqi 	117.4
scalar DataCentricNet.host[106].net 	MaxNeighborLqi 	238
scalar DataCentricNet.host[106].net 	MinNeighborLqi 	57
scalar DataCentricNet.host[106].net 	TEST_LengthLatestInterestArrivalPeriod 	0
scalar DataCentricNet.host[106].net 	ignoreRatio 	0.66795366795367
scalar DataCentricNet.dataCentricNetworkMan 	DataArrivals 	156
scalar DataCentricNet.dataCentricNetworkMan 	PercentageArrivals 	100
scalar DataCentricNet.dataCentricNetworkMan 	DataFailures 	0
scalar DataCentricNet.dataCentricNetworkMan 	PercentageFailures 	0
scalar DataCentricNet.dataCentricNetworkMan 	MeanE2EDelay 	0.022829229955429
scalar DataCentricNet.dataCentricNetworkMan 	StdDevE2EDelay 	0.012234567939548
scalar DataCentricNet.dataCentricNetworkMan 	MaxE2EDelay 	0.070327262957
scalar DataCentricNet.dataCentricNetworkMan 	MinE2EDelay 	0.003477209892
scalar DataCentricNet.dataCentricNetworkMan 	numControlPackets 	1271
scalar DataCentricNet.dataCentricNetworkMan 	MeanBPS 	0
scalar DataCentricNet.dataCentricNetworkMan 	StdDevBPS 	-1.#IND
scalar DataCentricNet.dataCentricNetworkMan 	MaxBPS 	0
scalar DataCentricNet.dataCentricNetworkMan 	MinBPS 	0
