version 2
run DataCentric_Experiment_1-18-20121129-16:06:48-2328
attr configname DataCentric_Experiment_1
attr datetime 20121129-16:06:48
attr experiment DataCentric_Experiment_1
attr inifile DataCentric_2.ini
attr iterationvars $numNodes=68
attr iterationvars2 "$numNodes=68, $repetition=0"
attr measurement $numNodes=68
attr network DataCentricNet
attr numNodes 68
attr processid 2328
attr repetition 0
attr replication #0
attr resultdir results
attr runnumber 18
attr seedset 18

scalar . 	numNodes 	68
scalar DataCentricNet.host[0].net 	NumberOfNeighbours 	8
scalar DataCentricNet.host[0].net 	TotalNeighborLqi 	1018
scalar DataCentricNet.host[0].net 	AverageNeighborLqi 	127.25
scalar DataCentricNet.host[0].net 	MaxNeighborLqi 	171
scalar DataCentricNet.host[0].net 	MinNeighborLqi 	0
scalar DataCentricNet.host[0].net 	TEST_LengthLatestInterestArrivalPeriod 	0
scalar DataCentricNet.host[0].net 	ignoreRatio 	0.59649122807018
scalar DataCentricNet.host[1].net 	NumberOfNeighbours 	5
scalar DataCentricNet.host[1].net 	TotalNeighborLqi 	308
scalar DataCentricNet.host[1].net 	AverageNeighborLqi 	61.6
scalar DataCentricNet.host[1].net 	MaxNeighborLqi 	120
scalar DataCentricNet.host[1].net 	MinNeighborLqi 	0
scalar DataCentricNet.host[1].net 	TEST_LengthLatestInterestArrivalPeriod 	0
scalar DataCentricNet.host[1].net 	ignoreRatio 	0.5625
scalar DataCentricNet.host[2].net 	NumberOfNeighbours 	8
scalar DataCentricNet.host[2].net 	TotalNeighborLqi 	641
scalar DataCentricNet.host[2].net 	AverageNeighborLqi 	80.125
scalar DataCentricNet.host[2].net 	MaxNeighborLqi 	151
scalar DataCentricNet.host[2].net 	MinNeighborLqi 	0
scalar DataCentricNet.host[2].net 	TEST_LengthLatestInterestArrivalPeriod 	0
scalar DataCentricNet.host[2].net 	ignoreRatio 	0.5625
scalar DataCentricNet.host[3].net 	NumberOfNeighbours 	3
scalar DataCentricNet.host[3].net 	TotalNeighborLqi 	2
scalar DataCentricNet.host[3].net 	AverageNeighborLqi 	0.66666666666667
scalar DataCentricNet.host[3].net 	MaxNeighborLqi 	1
scalar DataCentricNet.host[3].net 	MinNeighborLqi 	0
scalar DataCentricNet.host[3].net 	TEST_LengthLatestInterestArrivalPeriod 	0
scalar DataCentricNet.host[3].net 	ignoreRatio 	0.63302752293578
scalar DataCentricNet.host[4].net 	NumberOfNeighbours 	6
scalar DataCentricNet.host[4].net 	TotalNeighborLqi 	653
scalar DataCentricNet.host[4].net 	AverageNeighborLqi 	108.83333333333
scalar DataCentricNet.host[4].net 	MaxNeighborLqi 	169
scalar DataCentricNet.host[4].net 	MinNeighborLqi 	1
scalar DataCentricNet.host[4].net 	TEST_LengthLatestInterestArrivalPeriod 	0
scalar DataCentricNet.host[4].net 	ignoreRatio 	0.48333333333333
scalar DataCentricNet.host[5].net 	NumberOfNeighbours 	4
scalar DataCentricNet.host[5].net 	TotalNeighborLqi 	435
scalar DataCentricNet.host[5].net 	AverageNeighborLqi 	108.75
scalar DataCentricNet.host[5].net 	MaxNeighborLqi 	136
scalar DataCentricNet.host[5].net 	MinNeighborLqi 	58
scalar DataCentricNet.host[5].net 	TEST_LengthLatestInterestArrivalPeriod 	0
scalar DataCentricNet.host[5].net 	ignoreRatio 	0.53030303030303
scalar DataCentricNet.host[6].net 	NumberOfNeighbours 	3
scalar DataCentricNet.host[6].net 	TotalNeighborLqi 	191
scalar DataCentricNet.host[6].net 	AverageNeighborLqi 	63.666666666667
scalar DataCentricNet.host[6].net 	MaxNeighborLqi 	74
scalar DataCentricNet.host[6].net 	MinNeighborLqi 	58
scalar DataCentricNet.host[6].net 	TEST_LengthLatestInterestArrivalPeriod 	0
scalar DataCentricNet.host[6].net 	ignoreRatio 	0.52380952380952
scalar DataCentricNet.host[7].net 	NumberOfNeighbours 	3
scalar DataCentricNet.host[7].net 	TotalNeighborLqi 	288
scalar DataCentricNet.host[7].net 	AverageNeighborLqi 	96
scalar DataCentricNet.host[7].net 	MaxNeighborLqi 	120
scalar DataCentricNet.host[7].net 	MinNeighborLqi 	58
scalar DataCentricNet.host[7].net 	TEST_LengthLatestInterestArrivalPeriod 	0
scalar DataCentricNet.host[7].net 	ignoreRatio 	0.3125
scalar DataCentricNet.host[8].net 	NumberOfNeighbours 	0
scalar DataCentricNet.host[8].net 	TotalNeighborLqi 	0
scalar DataCentricNet.host[8].net 	AverageNeighborLqi 	0
scalar DataCentricNet.host[8].net 	MaxNeighborLqi 	0
scalar DataCentricNet.host[8].net 	MinNeighborLqi 	0
scalar DataCentricNet.host[8].net 	TEST_LengthLatestInterestArrivalPeriod 	0
scalar DataCentricNet.host[8].net 	ignoreRatio 	0.71428571428571
scalar DataCentricNet.host[9].net 	NumberOfNeighbours 	7
scalar DataCentricNet.host[9].net 	TotalNeighborLqi 	679
scalar DataCentricNet.host[9].net 	AverageNeighborLqi 	97
scalar DataCentricNet.host[9].net 	MaxNeighborLqi 	166
scalar DataCentricNet.host[9].net 	MinNeighborLqi 	58
scalar DataCentricNet.host[9].net 	TEST_LengthLatestInterestArrivalPeriod 	0
scalar DataCentricNet.host[9].net 	ignoreRatio 	0.28358208955224
scalar DataCentricNet.host[10].net 	NumberOfNeighbours 	6
scalar DataCentricNet.host[10].net 	TotalNeighborLqi 	607
scalar DataCentricNet.host[10].net 	AverageNeighborLqi 	101.16666666667
scalar DataCentricNet.host[10].net 	MaxNeighborLqi 	166
scalar DataCentricNet.host[10].net 	MinNeighborLqi 	29
scalar DataCentricNet.host[10].net 	TEST_LengthLatestInterestArrivalPeriod 	0
scalar DataCentricNet.host[10].net 	ignoreRatio 	0.53488372093023
scalar DataCentricNet.host[11].net 	NumberOfNeighbours 	4
scalar DataCentricNet.host[11].net 	TotalNeighborLqi 	228
scalar DataCentricNet.host[11].net 	AverageNeighborLqi 	57
scalar DataCentricNet.host[11].net 	MaxNeighborLqi 	166
scalar DataCentricNet.host[11].net 	MinNeighborLqi 	1
scalar DataCentricNet.host[11].net 	TEST_LengthLatestInterestArrivalPeriod 	0
scalar DataCentricNet.host[11].net 	ignoreRatio 	0.47058823529412
scalar DataCentricNet.host[12].net 	NumberOfNeighbours 	3
scalar DataCentricNet.host[12].net 	TotalNeighborLqi 	381
scalar DataCentricNet.host[12].net 	AverageNeighborLqi 	127
scalar DataCentricNet.host[12].net 	MaxNeighborLqi 	169
scalar DataCentricNet.host[12].net 	MinNeighborLqi 	48
scalar DataCentricNet.host[12].net 	TEST_LengthLatestInterestArrivalPeriod 	0
scalar DataCentricNet.host[12].net 	ignoreRatio 	0.51754385964912
scalar DataCentricNet.host[13].net 	NumberOfNeighbours 	5
scalar DataCentricNet.host[13].net 	TotalNeighborLqi 	629
scalar DataCentricNet.host[13].net 	AverageNeighborLqi 	125.8
scalar DataCentricNet.host[13].net 	MaxNeighborLqi 	164
scalar DataCentricNet.host[13].net 	MinNeighborLqi 	58
scalar DataCentricNet.host[13].net 	TEST_LengthLatestInterestArrivalPeriod 	0
scalar DataCentricNet.host[13].net 	ignoreRatio 	0.5
scalar DataCentricNet.host[14].net 	NumberOfNeighbours 	5
scalar DataCentricNet.host[14].net 	TotalNeighborLqi 	671
scalar DataCentricNet.host[14].net 	AverageNeighborLqi 	134.2
scalar DataCentricNet.host[14].net 	MaxNeighborLqi 	166
scalar DataCentricNet.host[14].net 	MinNeighborLqi 	67
scalar DataCentricNet.host[14].net 	TEST_LengthLatestInterestArrivalPeriod 	0
scalar DataCentricNet.host[14].net 	ignoreRatio 	0.52941176470588
scalar DataCentricNet.host[15].net 	NumberOfNeighbours 	4
scalar DataCentricNet.host[15].net 	TotalNeighborLqi 	419
scalar DataCentricNet.host[15].net 	AverageNeighborLqi 	104.75
scalar DataCentricNet.host[15].net 	MaxNeighborLqi 	161
scalar DataCentricNet.host[15].net 	MinNeighborLqi 	58
scalar DataCentricNet.host[15].net 	TEST_LengthLatestInterestArrivalPeriod 	0
scalar DataCentricNet.host[15].net 	ignoreRatio 	0.45054945054945
scalar DataCentricNet.host[16].net 	NumberOfNeighbours 	0
scalar DataCentricNet.host[16].net 	TotalNeighborLqi 	0
scalar DataCentricNet.host[16].net 	AverageNeighborLqi 	0
scalar DataCentricNet.host[16].net 	MaxNeighborLqi 	0
scalar DataCentricNet.host[16].net 	MinNeighborLqi 	0
scalar DataCentricNet.host[16].net 	TEST_LengthLatestInterestArrivalPeriod 	0
scalar DataCentricNet.host[16].net 	ignoreRatio 	0.75
scalar DataCentricNet.host[17].net 	NumberOfNeighbours 	4
scalar DataCentricNet.host[17].net 	TotalNeighborLqi 	518
scalar DataCentricNet.host[17].net 	AverageNeighborLqi 	129.5
scalar DataCentricNet.host[17].net 	MaxNeighborLqi 	169
scalar DataCentricNet.host[17].net 	MinNeighborLqi 	85
scalar DataCentricNet.host[17].net 	TEST_LengthLatestInterestArrivalPeriod 	0
scalar DataCentricNet.host[17].net 	ignoreRatio 	0.81021897810219
scalar DataCentricNet.host[18].net 	NumberOfNeighbours 	5
scalar DataCentricNet.host[18].net 	TotalNeighborLqi 	660
scalar DataCentricNet.host[18].net 	AverageNeighborLqi 	132
scalar DataCentricNet.host[18].net 	MaxNeighborLqi 	151
scalar DataCentricNet.host[18].net 	MinNeighborLqi 	82
scalar DataCentricNet.host[18].net 	TEST_LengthLatestInterestArrivalPeriod 	0
scalar DataCentricNet.host[18].net 	ignoreRatio 	0.67132867132867
scalar DataCentricNet.host[19].net 	NumberOfNeighbours 	2
scalar DataCentricNet.host[19].net 	TotalNeighborLqi 	180
scalar DataCentricNet.host[19].net 	AverageNeighborLqi 	90
scalar DataCentricNet.host[19].net 	MaxNeighborLqi 	164
scalar DataCentricNet.host[19].net 	MinNeighborLqi 	16
scalar DataCentricNet.host[19].net 	TEST_LengthLatestInterestArrivalPeriod 	0
scalar DataCentricNet.host[19].net 	ignoreRatio 	0.67164179104478
scalar DataCentricNet.host[20].net 	NumberOfNeighbours 	2
scalar DataCentricNet.host[20].net 	TotalNeighborLqi 	194
scalar DataCentricNet.host[20].net 	AverageNeighborLqi 	97
scalar DataCentricNet.host[20].net 	MaxNeighborLqi 	120
scalar DataCentricNet.host[20].net 	MinNeighborLqi 	74
scalar DataCentricNet.host[20].net 	TEST_LengthLatestInterestArrivalPeriod 	0
scalar DataCentricNet.host[20].net 	ignoreRatio 	0.6797385620915
scalar DataCentricNet.host[21].net 	NumberOfNeighbours 	8
scalar DataCentricNet.host[21].net 	TotalNeighborLqi 	933
scalar DataCentricNet.host[21].net 	AverageNeighborLqi 	116.625
scalar DataCentricNet.host[21].net 	MaxNeighborLqi 	169
scalar DataCentricNet.host[21].net 	MinNeighborLqi 	1
scalar DataCentricNet.host[21].net 	TEST_LengthLatestInterestArrivalPeriod 	0
scalar DataCentricNet.host[21].net 	ignoreRatio 	0.32824427480916
scalar DataCentricNet.host[22].net 	NumberOfNeighbours 	0
scalar DataCentricNet.host[22].net 	TotalNeighborLqi 	0
scalar DataCentricNet.host[22].net 	AverageNeighborLqi 	0
scalar DataCentricNet.host[22].net 	MaxNeighborLqi 	0
scalar DataCentricNet.host[22].net 	MinNeighborLqi 	0
scalar DataCentricNet.host[22].net 	TEST_LengthLatestInterestArrivalPeriod 	0
scalar DataCentricNet.host[22].net 	ignoreRatio 	0.70857142857143
scalar DataCentricNet.host[23].net 	NumberOfNeighbours 	2
scalar DataCentricNet.host[23].net 	TotalNeighborLqi 	42
scalar DataCentricNet.host[23].net 	AverageNeighborLqi 	21
scalar DataCentricNet.host[23].net 	MaxNeighborLqi 	41
scalar DataCentricNet.host[23].net 	MinNeighborLqi 	1
scalar DataCentricNet.host[23].net 	TEST_LengthLatestInterestArrivalPeriod 	0
scalar DataCentricNet.host[23].net 	ignoreRatio 	0.69298245614035
scalar DataCentricNet.host[24].net 	NumberOfNeighbours 	0
scalar DataCentricNet.host[24].net 	TotalNeighborLqi 	0
scalar DataCentricNet.host[24].net 	AverageNeighborLqi 	0
scalar DataCentricNet.host[24].net 	MaxNeighborLqi 	0
scalar DataCentricNet.host[24].net 	MinNeighborLqi 	0
scalar DataCentricNet.host[24].net 	TEST_LengthLatestInterestArrivalPeriod 	0
scalar DataCentricNet.host[24].net 	ignoreRatio 	0.82692307692308
scalar DataCentricNet.host[25].net 	NumberOfNeighbours 	3
scalar DataCentricNet.host[25].net 	TotalNeighborLqi 	390
scalar DataCentricNet.host[25].net 	AverageNeighborLqi 	130
scalar DataCentricNet.host[25].net 	MaxNeighborLqi 	136
scalar DataCentricNet.host[25].net 	MinNeighborLqi 	118
scalar DataCentricNet.host[25].net 	TEST_LengthLatestInterestArrivalPeriod 	0
scalar DataCentricNet.host[25].net 	ignoreRatio 	0.60204081632653
scalar DataCentricNet.host[26].net 	NumberOfNeighbours 	8
scalar DataCentricNet.host[26].net 	TotalNeighborLqi 	1116
scalar DataCentricNet.host[26].net 	AverageNeighborLqi 	139.5
scalar DataCentricNet.host[26].net 	MaxNeighborLqi 	169
scalar DataCentricNet.host[26].net 	MinNeighborLqi 	100
scalar DataCentricNet.host[26].net 	TEST_LengthLatestInterestArrivalPeriod 	0
scalar DataCentricNet.host[26].net 	ignoreRatio 	0.44117647058824
scalar DataCentricNet.host[27].net 	NumberOfNeighbours 	7
scalar DataCentricNet.host[27].net 	TotalNeighborLqi 	890
scalar DataCentricNet.host[27].net 	AverageNeighborLqi 	127.14285714286
scalar DataCentricNet.host[27].net 	MaxNeighborLqi 	164
scalar DataCentricNet.host[27].net 	MinNeighborLqi 	87
scalar DataCentricNet.host[27].net 	TEST_LengthLatestInterestArrivalPeriod 	0
scalar DataCentricNet.host[27].net 	ignoreRatio 	0.31666666666667
scalar DataCentricNet.host[28].net 	NumberOfNeighbours 	4
scalar DataCentricNet.host[28].net 	TotalNeighborLqi 	311
scalar DataCentricNet.host[28].net 	AverageNeighborLqi 	77.75
scalar DataCentricNet.host[28].net 	MaxNeighborLqi 	133
scalar DataCentricNet.host[28].net 	MinNeighborLqi 	1
scalar DataCentricNet.host[28].net 	TEST_LengthLatestInterestArrivalPeriod 	0
scalar DataCentricNet.host[28].net 	ignoreRatio 	0.54285714285714
scalar DataCentricNet.host[29].net 	NumberOfNeighbours 	6
scalar DataCentricNet.host[29].net 	TotalNeighborLqi 	669
scalar DataCentricNet.host[29].net 	AverageNeighborLqi 	111.5
scalar DataCentricNet.host[29].net 	MaxNeighborLqi 	169
scalar DataCentricNet.host[29].net 	MinNeighborLqi 	1
scalar DataCentricNet.host[29].net 	TEST_LengthLatestInterestArrivalPeriod 	0
scalar DataCentricNet.host[29].net 	ignoreRatio 	0.44961240310078
scalar DataCentricNet.host[30].net 	NumberOfNeighbours 	3
scalar DataCentricNet.host[30].net 	TotalNeighborLqi 	280
scalar DataCentricNet.host[30].net 	AverageNeighborLqi 	93.333333333333
scalar DataCentricNet.host[30].net 	MaxNeighborLqi 	146
scalar DataCentricNet.host[30].net 	MinNeighborLqi 	1
scalar DataCentricNet.host[30].net 	TEST_LengthLatestInterestArrivalPeriod 	0
scalar DataCentricNet.host[30].net 	ignoreRatio 	0.75539568345324
scalar DataCentricNet.host[31].net 	NumberOfNeighbours 	7
scalar DataCentricNet.host[31].net 	TotalNeighborLqi 	855
scalar DataCentricNet.host[31].net 	AverageNeighborLqi 	122.14285714286
scalar DataCentricNet.host[31].net 	MaxNeighborLqi 	161
scalar DataCentricNet.host[31].net 	MinNeighborLqi 	64
scalar DataCentricNet.host[31].net 	TEST_LengthLatestInterestArrivalPeriod 	0
scalar DataCentricNet.host[31].net 	ignoreRatio 	0.54088050314465
scalar DataCentricNet.host[32].net 	NumberOfNeighbours 	4
scalar DataCentricNet.host[32].net 	TotalNeighborLqi 	443
scalar DataCentricNet.host[32].net 	AverageNeighborLqi 	110.75
scalar DataCentricNet.host[32].net 	MaxNeighborLqi 	169
scalar DataCentricNet.host[32].net 	MinNeighborLqi 	16
scalar DataCentricNet.host[32].net 	TEST_LengthLatestInterestArrivalPeriod 	0
scalar DataCentricNet.host[32].net 	ignoreRatio 	0.65555555555556
scalar DataCentricNet.host[33].net 	NumberOfNeighbours 	7
scalar DataCentricNet.host[33].net 	TotalNeighborLqi 	757
scalar DataCentricNet.host[33].net 	AverageNeighborLqi 	108.14285714286
scalar DataCentricNet.host[33].net 	MaxNeighborLqi 	164
scalar DataCentricNet.host[33].net 	MinNeighborLqi 	1
scalar DataCentricNet.host[33].net 	TEST_LengthLatestInterestArrivalPeriod 	0
scalar DataCentricNet.host[33].net 	ignoreRatio 	0.49032258064516
scalar DataCentricNet.host[34].net 	NumberOfNeighbours 	3
scalar DataCentricNet.host[34].net 	TotalNeighborLqi 	463
scalar DataCentricNet.host[34].net 	AverageNeighborLqi 	154.33333333333
scalar DataCentricNet.host[34].net 	MaxNeighborLqi 	166
scalar DataCentricNet.host[34].net 	MinNeighborLqi 	146
scalar DataCentricNet.host[34].net 	TEST_LengthLatestInterestArrivalPeriod 	0
scalar DataCentricNet.host[34].net 	ignoreRatio 	0.75862068965517
scalar DataCentricNet.host[35].net 	NumberOfNeighbours 	4
scalar DataCentricNet.host[35].net 	TotalNeighborLqi 	525
scalar DataCentricNet.host[35].net 	AverageNeighborLqi 	131.25
scalar DataCentricNet.host[35].net 	MaxNeighborLqi 	166
scalar DataCentricNet.host[35].net 	MinNeighborLqi 	95
scalar DataCentricNet.host[35].net 	TEST_LengthLatestInterestArrivalPeriod 	0
scalar DataCentricNet.host[35].net 	ignoreRatio 	0.70625
scalar DataCentricNet.host[36].net 	NumberOfNeighbours 	3
scalar DataCentricNet.host[36].net 	TotalNeighborLqi 	316
scalar DataCentricNet.host[36].net 	AverageNeighborLqi 	105.33333333333
scalar DataCentricNet.host[36].net 	MaxNeighborLqi 	164
scalar DataCentricNet.host[36].net 	MinNeighborLqi 	1
scalar DataCentricNet.host[36].net 	TEST_LengthLatestInterestArrivalPeriod 	0
scalar DataCentricNet.host[36].net 	ignoreRatio 	0.57303370786517
scalar DataCentricNet.host[37].net 	NumberOfNeighbours 	4
scalar DataCentricNet.host[37].net 	TotalNeighborLqi 	469
scalar DataCentricNet.host[37].net 	AverageNeighborLqi 	117.25
scalar DataCentricNet.host[37].net 	MaxNeighborLqi 	164
scalar DataCentricNet.host[37].net 	MinNeighborLqi 	82
scalar DataCentricNet.host[37].net 	TEST_LengthLatestInterestArrivalPeriod 	0
scalar DataCentricNet.host[37].net 	ignoreRatio 	0.7890625
scalar DataCentricNet.host[38].net 	NumberOfNeighbours 	4
scalar DataCentricNet.host[38].net 	TotalNeighborLqi 	469
scalar DataCentricNet.host[38].net 	AverageNeighborLqi 	117.25
scalar DataCentricNet.host[38].net 	MaxNeighborLqi 	161
scalar DataCentricNet.host[38].net 	MinNeighborLqi 	85
scalar DataCentricNet.host[38].net 	TEST_LengthLatestInterestArrivalPeriod 	0
scalar DataCentricNet.host[38].net 	ignoreRatio 	0.44954128440367
scalar DataCentricNet.host[39].net 	NumberOfNeighbours 	0
scalar DataCentricNet.host[39].net 	TotalNeighborLqi 	0
scalar DataCentricNet.host[39].net 	AverageNeighborLqi 	0
scalar DataCentricNet.host[39].net 	MaxNeighborLqi 	0
scalar DataCentricNet.host[39].net 	MinNeighborLqi 	0
scalar DataCentricNet.host[39].net 	TEST_LengthLatestInterestArrivalPeriod 	0
scalar DataCentricNet.host[39].net 	ignoreRatio 	0.86567164179104
scalar DataCentricNet.host[40].net 	NumberOfNeighbours 	6
scalar DataCentricNet.host[40].net 	TotalNeighborLqi 	644
scalar DataCentricNet.host[40].net 	AverageNeighborLqi 	107.33333333333
scalar DataCentricNet.host[40].net 	MaxNeighborLqi 	169
scalar DataCentricNet.host[40].net 	MinNeighborLqi 	11
scalar DataCentricNet.host[40].net 	TEST_LengthLatestInterestArrivalPeriod 	0
scalar DataCentricNet.host[40].net 	ignoreRatio 	0.50625
scalar DataCentricNet.host[41].net 	NumberOfNeighbours 	7
scalar DataCentricNet.host[41].net 	TotalNeighborLqi 	873
scalar DataCentricNet.host[41].net 	AverageNeighborLqi 	124.71428571429
scalar DataCentricNet.host[41].net 	MaxNeighborLqi 	169
scalar DataCentricNet.host[41].net 	MinNeighborLqi 	21
scalar DataCentricNet.host[41].net 	TEST_LengthLatestInterestArrivalPeriod 	0
scalar DataCentricNet.host[41].net 	ignoreRatio 	0.48461538461538
scalar DataCentricNet.host[42].net 	NumberOfNeighbours 	7
scalar DataCentricNet.host[42].net 	TotalNeighborLqi 	728
scalar DataCentricNet.host[42].net 	AverageNeighborLqi 	104
scalar DataCentricNet.host[42].net 	MaxNeighborLqi 	159
scalar DataCentricNet.host[42].net 	MinNeighborLqi 	11
scalar DataCentricNet.host[42].net 	TEST_LengthLatestInterestArrivalPeriod 	0
scalar DataCentricNet.host[42].net 	ignoreRatio 	0.49382716049383
scalar DataCentricNet.host[43].net 	NumberOfNeighbours 	4
scalar DataCentricNet.host[43].net 	TotalNeighborLqi 	271
scalar DataCentricNet.host[43].net 	AverageNeighborLqi 	67.75
scalar DataCentricNet.host[43].net 	MaxNeighborLqi 	131
scalar DataCentricNet.host[43].net 	MinNeighborLqi 	1
scalar DataCentricNet.host[43].net 	TEST_LengthLatestInterestArrivalPeriod 	0
scalar DataCentricNet.host[43].net 	ignoreRatio 	0.5
scalar DataCentricNet.host[44].net 	NumberOfNeighbours 	2
scalar DataCentricNet.host[44].net 	TotalNeighborLqi 	228
scalar DataCentricNet.host[44].net 	AverageNeighborLqi 	114
scalar DataCentricNet.host[44].net 	MaxNeighborLqi 	161
scalar DataCentricNet.host[44].net 	MinNeighborLqi 	67
scalar DataCentricNet.host[44].net 	TEST_LengthLatestInterestArrivalPeriod 	0
scalar DataCentricNet.host[44].net 	ignoreRatio 	0.63253012048193
scalar DataCentricNet.host[45].net 	NumberOfNeighbours 	6
scalar DataCentricNet.host[45].net 	TotalNeighborLqi 	652
scalar DataCentricNet.host[45].net 	AverageNeighborLqi 	108.66666666667
scalar DataCentricNet.host[45].net 	MaxNeighborLqi 	164
scalar DataCentricNet.host[45].net 	MinNeighborLqi 	11
scalar DataCentricNet.host[45].net 	TEST_LengthLatestInterestArrivalPeriod 	0
scalar DataCentricNet.host[45].net 	ignoreRatio 	0.58381502890173
scalar DataCentricNet.host[46].net 	NumberOfNeighbours 	3
scalar DataCentricNet.host[46].net 	TotalNeighborLqi 	166
scalar DataCentricNet.host[46].net 	AverageNeighborLqi 	55.333333333333
scalar DataCentricNet.host[46].net 	MaxNeighborLqi 	124
scalar DataCentricNet.host[46].net 	MinNeighborLqi 	1
scalar DataCentricNet.host[46].net 	TEST_LengthLatestInterestArrivalPeriod 	0
scalar DataCentricNet.host[46].net 	ignoreRatio 	0.49242424242424
scalar DataCentricNet.host[47].net 	NumberOfNeighbours 	6
scalar DataCentricNet.host[47].net 	TotalNeighborLqi 	820
scalar DataCentricNet.host[47].net 	AverageNeighborLqi 	136.66666666667
scalar DataCentricNet.host[47].net 	MaxNeighborLqi 	164
scalar DataCentricNet.host[47].net 	MinNeighborLqi 	77
scalar DataCentricNet.host[47].net 	TEST_LengthLatestInterestArrivalPeriod 	0
scalar DataCentricNet.host[47].net 	ignoreRatio 	0.58677685950413
scalar DataCentricNet.host[48].net 	NumberOfNeighbours 	8
scalar DataCentricNet.host[48].net 	TotalNeighborLqi 	972
scalar DataCentricNet.host[48].net 	AverageNeighborLqi 	121.5
scalar DataCentricNet.host[48].net 	MaxNeighborLqi 	166
scalar DataCentricNet.host[48].net 	MinNeighborLqi 	1
scalar DataCentricNet.host[48].net 	TEST_LengthLatestInterestArrivalPeriod 	0
scalar DataCentricNet.host[48].net 	ignoreRatio 	0.42
scalar DataCentricNet.host[49].net 	NumberOfNeighbours 	8
scalar DataCentricNet.host[49].net 	TotalNeighborLqi 	992
scalar DataCentricNet.host[49].net 	AverageNeighborLqi 	124
scalar DataCentricNet.host[49].net 	MaxNeighborLqi 	169
scalar DataCentricNet.host[49].net 	MinNeighborLqi 	1
scalar DataCentricNet.host[49].net 	TEST_LengthLatestInterestArrivalPeriod 	0
scalar DataCentricNet.host[49].net 	ignoreRatio 	0.30597014925373
scalar DataCentricNet.host[50].net 	NumberOfNeighbours 	5
scalar DataCentricNet.host[50].net 	TotalNeighborLqi 	726
scalar DataCentricNet.host[50].net 	AverageNeighborLqi 	145.2
scalar DataCentricNet.host[50].net 	MaxNeighborLqi 	169
scalar DataCentricNet.host[50].net 	MinNeighborLqi 	116
scalar DataCentricNet.host[50].net 	TEST_LengthLatestInterestArrivalPeriod 	0
scalar DataCentricNet.host[50].net 	ignoreRatio 	0.62637362637363
scalar DataCentricNet.host[51].net 	NumberOfNeighbours 	7
scalar DataCentricNet.host[51].net 	TotalNeighborLqi 	1011
scalar DataCentricNet.host[51].net 	AverageNeighborLqi 	144.42857142857
scalar DataCentricNet.host[51].net 	MaxNeighborLqi 	169
scalar DataCentricNet.host[51].net 	MinNeighborLqi 	118
scalar DataCentricNet.host[51].net 	TEST_LengthLatestInterestArrivalPeriod 	0
scalar DataCentricNet.host[51].net 	ignoreRatio 	0.52469135802469
scalar DataCentricNet.host[52].net 	NumberOfNeighbours 	0
scalar DataCentricNet.host[52].net 	TotalNeighborLqi 	0
scalar DataCentricNet.host[52].net 	AverageNeighborLqi 	0
scalar DataCentricNet.host[52].net 	MaxNeighborLqi 	0
scalar DataCentricNet.host[52].net 	MinNeighborLqi 	0
scalar DataCentricNet.host[52].net 	TEST_LengthLatestInterestArrivalPeriod 	0
scalar DataCentricNet.host[52].net 	ignoreRatio 	0.77027027027027
scalar DataCentricNet.host[53].net 	NumberOfNeighbours 	4
scalar DataCentricNet.host[53].net 	TotalNeighborLqi 	509
scalar DataCentricNet.host[53].net 	AverageNeighborLqi 	127.25
scalar DataCentricNet.host[53].net 	MaxNeighborLqi 	133
scalar DataCentricNet.host[53].net 	MinNeighborLqi 	120
scalar DataCentricNet.host[53].net 	TEST_LengthLatestInterestArrivalPeriod 	0
scalar DataCentricNet.host[53].net 	ignoreRatio 	0.35384615384615
scalar DataCentricNet.host[54].net 	NumberOfNeighbours 	7
scalar DataCentricNet.host[54].net 	TotalNeighborLqi 	931
scalar DataCentricNet.host[54].net 	AverageNeighborLqi 	133
scalar DataCentricNet.host[54].net 	MaxNeighborLqi 	161
scalar DataCentricNet.host[54].net 	MinNeighborLqi 	100
scalar DataCentricNet.host[54].net 	TEST_LengthLatestInterestArrivalPeriod 	0
scalar DataCentricNet.host[54].net 	ignoreRatio 	0.41176470588235
scalar DataCentricNet.host[55].net 	NumberOfNeighbours 	0
scalar DataCentricNet.host[55].net 	TotalNeighborLqi 	0
scalar DataCentricNet.host[55].net 	AverageNeighborLqi 	0
scalar DataCentricNet.host[55].net 	MaxNeighborLqi 	0
scalar DataCentricNet.host[55].net 	MinNeighborLqi 	0
scalar DataCentricNet.host[55].net 	TEST_LengthLatestInterestArrivalPeriod 	0
scalar DataCentricNet.host[55].net 	ignoreRatio 	0.61818181818182
scalar DataCentricNet.host[56].net 	NumberOfNeighbours 	0
scalar DataCentricNet.host[56].net 	TotalNeighborLqi 	0
scalar DataCentricNet.host[56].net 	AverageNeighborLqi 	0
scalar DataCentricNet.host[56].net 	MaxNeighborLqi 	0
scalar DataCentricNet.host[56].net 	MinNeighborLqi 	0
scalar DataCentricNet.host[56].net 	TEST_LengthLatestInterestArrivalPeriod 	0
scalar DataCentricNet.host[56].net 	ignoreRatio 	0.76086956521739
scalar DataCentricNet.host[57].net 	NumberOfNeighbours 	3
scalar DataCentricNet.host[57].net 	TotalNeighborLqi 	350
scalar DataCentricNet.host[57].net 	AverageNeighborLqi 	116.66666666667
scalar DataCentricNet.host[57].net 	MaxNeighborLqi 	143
scalar DataCentricNet.host[57].net 	MinNeighborLqi 	97
scalar DataCentricNet.host[57].net 	TEST_LengthLatestInterestArrivalPeriod 	0
scalar DataCentricNet.host[57].net 	ignoreRatio 	0.76859504132231
scalar DataCentricNet.host[58].net 	NumberOfNeighbours 	3
scalar DataCentricNet.host[58].net 	TotalNeighborLqi 	318
scalar DataCentricNet.host[58].net 	AverageNeighborLqi 	106
scalar DataCentricNet.host[58].net 	MaxNeighborLqi 	161
scalar DataCentricNet.host[58].net 	MinNeighborLqi 	1
scalar DataCentricNet.host[58].net 	TEST_LengthLatestInterestArrivalPeriod 	0
scalar DataCentricNet.host[58].net 	ignoreRatio 	0.7007874015748
scalar DataCentricNet.host[59].net 	NumberOfNeighbours 	5
scalar DataCentricNet.host[59].net 	TotalNeighborLqi 	745
scalar DataCentricNet.host[59].net 	AverageNeighborLqi 	149
scalar DataCentricNet.host[59].net 	MaxNeighborLqi 	169
scalar DataCentricNet.host[59].net 	MinNeighborLqi 	118
scalar DataCentricNet.host[59].net 	TEST_LengthLatestInterestArrivalPeriod 	0
scalar DataCentricNet.host[59].net 	ignoreRatio 	0.53174603174603
scalar DataCentricNet.host[60].net 	NumberOfNeighbours 	4
scalar DataCentricNet.host[60].net 	TotalNeighborLqi 	448
scalar DataCentricNet.host[60].net 	AverageNeighborLqi 	112
scalar DataCentricNet.host[60].net 	MaxNeighborLqi 	146
scalar DataCentricNet.host[60].net 	MinNeighborLqi 	77
scalar DataCentricNet.host[60].net 	TEST_LengthLatestInterestArrivalPeriod 	0
scalar DataCentricNet.host[60].net 	ignoreRatio 	0.66901408450704
scalar DataCentricNet.host[61].net 	NumberOfNeighbours 	1
scalar DataCentricNet.host[61].net 	TotalNeighborLqi 	161
scalar DataCentricNet.host[61].net 	AverageNeighborLqi 	161
scalar DataCentricNet.host[61].net 	MaxNeighborLqi 	161
scalar DataCentricNet.host[61].net 	MinNeighborLqi 	161
scalar DataCentricNet.host[61].net 	TEST_LengthLatestInterestArrivalPeriod 	0
scalar DataCentricNet.host[61].net 	ignoreRatio 	0.45238095238095
scalar DataCentricNet.host[62].net 	NumberOfNeighbours 	2
scalar DataCentricNet.host[62].net 	TotalNeighborLqi 	301
scalar DataCentricNet.host[62].net 	AverageNeighborLqi 	150.5
scalar DataCentricNet.host[62].net 	MaxNeighborLqi 	153
scalar DataCentricNet.host[62].net 	MinNeighborLqi 	148
scalar DataCentricNet.host[62].net 	TEST_LengthLatestInterestArrivalPeriod 	0
scalar DataCentricNet.host[62].net 	ignoreRatio 	0.75714285714286
scalar DataCentricNet.host[63].net 	NumberOfNeighbours 	10
scalar DataCentricNet.host[63].net 	TotalNeighborLqi 	1345
scalar DataCentricNet.host[63].net 	AverageNeighborLqi 	134.5
scalar DataCentricNet.host[63].net 	MaxNeighborLqi 	169
scalar DataCentricNet.host[63].net 	MinNeighborLqi 	11
scalar DataCentricNet.host[63].net 	TEST_LengthLatestInterestArrivalPeriod 	0
scalar DataCentricNet.host[63].net 	ignoreRatio 	0.42307692307692
scalar DataCentricNet.host[64].net 	NumberOfNeighbours 	0
scalar DataCentricNet.host[64].net 	TotalNeighborLqi 	0
scalar DataCentricNet.host[64].net 	AverageNeighborLqi 	0
scalar DataCentricNet.host[64].net 	MaxNeighborLqi 	0
scalar DataCentricNet.host[64].net 	MinNeighborLqi 	0
scalar DataCentricNet.host[64].net 	TEST_LengthLatestInterestArrivalPeriod 	0
scalar DataCentricNet.host[64].net 	ignoreRatio 	0.875
scalar DataCentricNet.host[65].net 	NumberOfNeighbours 	5
scalar DataCentricNet.host[65].net 	TotalNeighborLqi 	391
scalar DataCentricNet.host[65].net 	AverageNeighborLqi 	78.2
scalar DataCentricNet.host[65].net 	MaxNeighborLqi 	125
scalar DataCentricNet.host[65].net 	MinNeighborLqi 	1
scalar DataCentricNet.host[65].net 	TEST_LengthLatestInterestArrivalPeriod 	0
scalar DataCentricNet.host[65].net 	ignoreRatio 	0.53658536585366
scalar DataCentricNet.host[66].net 	NumberOfNeighbours 	4
scalar DataCentricNet.host[66].net 	TotalNeighborLqi 	504
scalar DataCentricNet.host[66].net 	AverageNeighborLqi 	126
scalar DataCentricNet.host[66].net 	MaxNeighborLqi 	138
scalar DataCentricNet.host[66].net 	MinNeighborLqi 	110
scalar DataCentricNet.host[66].net 	TEST_LengthLatestInterestArrivalPeriod 	0
scalar DataCentricNet.host[66].net 	ignoreRatio 	0.77241379310345
scalar DataCentricNet.host[67].net 	NumberOfNeighbours 	3
scalar DataCentricNet.host[67].net 	TotalNeighborLqi 	372
scalar DataCentricNet.host[67].net 	AverageNeighborLqi 	124
scalar DataCentricNet.host[67].net 	MaxNeighborLqi 	164
scalar DataCentricNet.host[67].net 	MinNeighborLqi 	100
scalar DataCentricNet.host[67].net 	TEST_LengthLatestInterestArrivalPeriod 	0
scalar DataCentricNet.host[67].net 	ignoreRatio 	0.66451612903226
scalar DataCentricNet.dataCentricNetworkMan 	DataArrivals 	130
scalar DataCentricNet.dataCentricNetworkMan 	PercentageArrivals 	83.333333333333
scalar DataCentricNet.dataCentricNetworkMan 	DataFailures 	26
scalar DataCentricNet.dataCentricNetworkMan 	PercentageFailures 	16.666666666667
scalar DataCentricNet.dataCentricNetworkMan 	MeanE2EDelay 	0.023247636297923
scalar DataCentricNet.dataCentricNetworkMan 	StdDevE2EDelay 	0.013868575270103
scalar DataCentricNet.dataCentricNetworkMan 	MaxE2EDelay 	0.075630507326
scalar DataCentricNet.dataCentricNetworkMan 	MinE2EDelay 	0.002672500274
scalar DataCentricNet.dataCentricNetworkMan 	numControlPackets 	583
scalar DataCentricNet.dataCentricNetworkMan 	MeanBPS 	0
scalar DataCentricNet.dataCentricNetworkMan 	StdDevBPS 	-1.#IND
scalar DataCentricNet.dataCentricNetworkMan 	MaxBPS 	0
scalar DataCentricNet.dataCentricNetworkMan 	MinBPS 	0
