version 2
run DataCentric_Experiment_1-52-20121202-23:47:36-3540
attr configname DataCentric_Experiment_1
attr datetime 20121202-23:47:36
attr experiment DataCentric_Experiment_1
attr inifile DataCentric_2.ini
attr iterationvars $numNodes=102
attr iterationvars2 "$numNodes=102, $repetition=0"
attr measurement $numNodes=102
attr network DataCentricNet
attr numNodes 102
attr processid 3540
attr repetition 0
attr replication #0
attr resultdir results
attr runnumber 52
attr seedset 52

scalar . 	numNodes 	102
scalar DataCentricNet.host[0].net 	NumberOfNeighbours 	11
scalar DataCentricNet.host[0].net 	TotalNeighborLqi 	989
scalar DataCentricNet.host[0].net 	AverageNeighborLqi 	89.909090909091
scalar DataCentricNet.host[0].net 	MaxNeighborLqi 	166
scalar DataCentricNet.host[0].net 	MinNeighborLqi 	0
scalar DataCentricNet.host[0].net 	TEST_LengthLatestInterestArrivalPeriod 	0
scalar DataCentricNet.host[0].net 	ignoreRatio 	0.6986301369863
scalar DataCentricNet.host[1].net 	NumberOfNeighbours 	10
scalar DataCentricNet.host[1].net 	TotalNeighborLqi 	854
scalar DataCentricNet.host[1].net 	AverageNeighborLqi 	85.4
scalar DataCentricNet.host[1].net 	MaxNeighborLqi 	156
scalar DataCentricNet.host[1].net 	MinNeighborLqi 	0
scalar DataCentricNet.host[1].net 	TEST_LengthLatestInterestArrivalPeriod 	0
scalar DataCentricNet.host[1].net 	ignoreRatio 	0.65486725663717
scalar DataCentricNet.host[2].net 	NumberOfNeighbours 	8
scalar DataCentricNet.host[2].net 	TotalNeighborLqi 	1098
scalar DataCentricNet.host[2].net 	AverageNeighborLqi 	137.25
scalar DataCentricNet.host[2].net 	MaxNeighborLqi 	171
scalar DataCentricNet.host[2].net 	MinNeighborLqi 	58
scalar DataCentricNet.host[2].net 	TEST_LengthLatestInterestArrivalPeriod 	0
scalar DataCentricNet.host[2].net 	ignoreRatio 	0.58
scalar DataCentricNet.host[3].net 	NumberOfNeighbours 	8
scalar DataCentricNet.host[3].net 	TotalNeighborLqi 	974
scalar DataCentricNet.host[3].net 	AverageNeighborLqi 	121.75
scalar DataCentricNet.host[3].net 	MaxNeighborLqi 	179
scalar DataCentricNet.host[3].net 	MinNeighborLqi 	36
scalar DataCentricNet.host[3].net 	TEST_LengthLatestInterestArrivalPeriod 	0
scalar DataCentricNet.host[3].net 	ignoreRatio 	0.42372881355932
scalar DataCentricNet.host[4].net 	NumberOfNeighbours 	6
scalar DataCentricNet.host[4].net 	TotalNeighborLqi 	584
scalar DataCentricNet.host[4].net 	AverageNeighborLqi 	97.333333333333
scalar DataCentricNet.host[4].net 	MaxNeighborLqi 	210
scalar DataCentricNet.host[4].net 	MinNeighborLqi 	0
scalar DataCentricNet.host[4].net 	TEST_LengthLatestInterestArrivalPeriod 	0
scalar DataCentricNet.host[4].net 	ignoreRatio 	0.64495114006515
scalar DataCentricNet.host[5].net 	NumberOfNeighbours 	7
scalar DataCentricNet.host[5].net 	TotalNeighborLqi 	800
scalar DataCentricNet.host[5].net 	AverageNeighborLqi 	114.28571428571
scalar DataCentricNet.host[5].net 	MaxNeighborLqi 	227
scalar DataCentricNet.host[5].net 	MinNeighborLqi 	39
scalar DataCentricNet.host[5].net 	TEST_LengthLatestInterestArrivalPeriod 	0
scalar DataCentricNet.host[5].net 	ignoreRatio 	0.65680473372781
scalar DataCentricNet.host[6].net 	NumberOfNeighbours 	11
scalar DataCentricNet.host[6].net 	TotalNeighborLqi 	911
scalar DataCentricNet.host[6].net 	AverageNeighborLqi 	82.818181818182
scalar DataCentricNet.host[6].net 	MaxNeighborLqi 	202
scalar DataCentricNet.host[6].net 	MinNeighborLqi 	0
scalar DataCentricNet.host[6].net 	TEST_LengthLatestInterestArrivalPeriod 	0
scalar DataCentricNet.host[6].net 	ignoreRatio 	0.74679487179487
scalar DataCentricNet.host[7].net 	NumberOfNeighbours 	8
scalar DataCentricNet.host[7].net 	TotalNeighborLqi 	1028
scalar DataCentricNet.host[7].net 	AverageNeighborLqi 	128.5
scalar DataCentricNet.host[7].net 	MaxNeighborLqi 	230
scalar DataCentricNet.host[7].net 	MinNeighborLqi 	58
scalar DataCentricNet.host[7].net 	TEST_LengthLatestInterestArrivalPeriod 	0
scalar DataCentricNet.host[7].net 	ignoreRatio 	0.47169811320755
scalar DataCentricNet.host[8].net 	NumberOfNeighbours 	11
scalar DataCentricNet.host[8].net 	TotalNeighborLqi 	1185
scalar DataCentricNet.host[8].net 	AverageNeighborLqi 	107.72727272727
scalar DataCentricNet.host[8].net 	MaxNeighborLqi 	212
scalar DataCentricNet.host[8].net 	MinNeighborLqi 	8
scalar DataCentricNet.host[8].net 	TEST_LengthLatestInterestArrivalPeriod 	0
scalar DataCentricNet.host[8].net 	ignoreRatio 	0.6448087431694
scalar DataCentricNet.host[9].net 	NumberOfNeighbours 	3
scalar DataCentricNet.host[9].net 	TotalNeighborLqi 	273
scalar DataCentricNet.host[9].net 	AverageNeighborLqi 	91
scalar DataCentricNet.host[9].net 	MaxNeighborLqi 	179
scalar DataCentricNet.host[9].net 	MinNeighborLqi 	36
scalar DataCentricNet.host[9].net 	TEST_LengthLatestInterestArrivalPeriod 	0
scalar DataCentricNet.host[9].net 	ignoreRatio 	0.5375
scalar DataCentricNet.host[10].net 	NumberOfNeighbours 	5
scalar DataCentricNet.host[10].net 	TotalNeighborLqi 	558
scalar DataCentricNet.host[10].net 	AverageNeighborLqi 	111.6
scalar DataCentricNet.host[10].net 	MaxNeighborLqi 	192
scalar DataCentricNet.host[10].net 	MinNeighborLqi 	39
scalar DataCentricNet.host[10].net 	TEST_LengthLatestInterestArrivalPeriod 	0
scalar DataCentricNet.host[10].net 	ignoreRatio 	0.4952380952381
scalar DataCentricNet.host[11].net 	NumberOfNeighbours 	8
scalar DataCentricNet.host[11].net 	TotalNeighborLqi 	853
scalar DataCentricNet.host[11].net 	AverageNeighborLqi 	106.625
scalar DataCentricNet.host[11].net 	MaxNeighborLqi 	194
scalar DataCentricNet.host[11].net 	MinNeighborLqi 	1
scalar DataCentricNet.host[11].net 	TEST_LengthLatestInterestArrivalPeriod 	0
scalar DataCentricNet.host[11].net 	ignoreRatio 	0.30952380952381
scalar DataCentricNet.host[12].net 	NumberOfNeighbours 	10
scalar DataCentricNet.host[12].net 	TotalNeighborLqi 	1187
scalar DataCentricNet.host[12].net 	AverageNeighborLqi 	118.7
scalar DataCentricNet.host[12].net 	MaxNeighborLqi 	171
scalar DataCentricNet.host[12].net 	MinNeighborLqi 	62
scalar DataCentricNet.host[12].net 	TEST_LengthLatestInterestArrivalPeriod 	0
scalar DataCentricNet.host[12].net 	ignoreRatio 	0.69436201780415
scalar DataCentricNet.host[13].net 	NumberOfNeighbours 	6
scalar DataCentricNet.host[13].net 	TotalNeighborLqi 	627
scalar DataCentricNet.host[13].net 	AverageNeighborLqi 	104.5
scalar DataCentricNet.host[13].net 	MaxNeighborLqi 	169
scalar DataCentricNet.host[13].net 	MinNeighborLqi 	16
scalar DataCentricNet.host[13].net 	TEST_LengthLatestInterestArrivalPeriod 	0
scalar DataCentricNet.host[13].net 	ignoreRatio 	0.66279069767442
scalar DataCentricNet.host[14].net 	NumberOfNeighbours 	7
scalar DataCentricNet.host[14].net 	TotalNeighborLqi 	660
scalar DataCentricNet.host[14].net 	AverageNeighborLqi 	94.285714285714
scalar DataCentricNet.host[14].net 	MaxNeighborLqi 	174
scalar DataCentricNet.host[14].net 	MinNeighborLqi 	1
scalar DataCentricNet.host[14].net 	TEST_LengthLatestInterestArrivalPeriod 	0
scalar DataCentricNet.host[14].net 	ignoreRatio 	0.71428571428571
scalar DataCentricNet.host[15].net 	NumberOfNeighbours 	9
scalar DataCentricNet.host[15].net 	TotalNeighborLqi 	1193
scalar DataCentricNet.host[15].net 	AverageNeighborLqi 	132.55555555556
scalar DataCentricNet.host[15].net 	MaxNeighborLqi 	197
scalar DataCentricNet.host[15].net 	MinNeighborLqi 	58
scalar DataCentricNet.host[15].net 	TEST_LengthLatestInterestArrivalPeriod 	0
scalar DataCentricNet.host[15].net 	ignoreRatio 	0.47368421052632
scalar DataCentricNet.host[16].net 	NumberOfNeighbours 	7
scalar DataCentricNet.host[16].net 	TotalNeighborLqi 	508
scalar DataCentricNet.host[16].net 	AverageNeighborLqi 	72.571428571429
scalar DataCentricNet.host[16].net 	MaxNeighborLqi 	174
scalar DataCentricNet.host[16].net 	MinNeighborLqi 	8
scalar DataCentricNet.host[16].net 	TEST_LengthLatestInterestArrivalPeriod 	0
scalar DataCentricNet.host[16].net 	ignoreRatio 	0.63470319634703
scalar DataCentricNet.host[17].net 	NumberOfNeighbours 	10
scalar DataCentricNet.host[17].net 	TotalNeighborLqi 	1301
scalar DataCentricNet.host[17].net 	AverageNeighborLqi 	130.1
scalar DataCentricNet.host[17].net 	MaxNeighborLqi 	215
scalar DataCentricNet.host[17].net 	MinNeighborLqi 	51
scalar DataCentricNet.host[17].net 	TEST_LengthLatestInterestArrivalPeriod 	0
scalar DataCentricNet.host[17].net 	ignoreRatio 	0.71739130434783
scalar DataCentricNet.host[18].net 	NumberOfNeighbours 	10
scalar DataCentricNet.host[18].net 	TotalNeighborLqi 	1078
scalar DataCentricNet.host[18].net 	AverageNeighborLqi 	107.8
scalar DataCentricNet.host[18].net 	MaxNeighborLqi 	174
scalar DataCentricNet.host[18].net 	MinNeighborLqi 	44
scalar DataCentricNet.host[18].net 	TEST_LengthLatestInterestArrivalPeriod 	0
scalar DataCentricNet.host[18].net 	ignoreRatio 	0.65346534653465
scalar DataCentricNet.host[19].net 	NumberOfNeighbours 	5
scalar DataCentricNet.host[19].net 	TotalNeighborLqi 	597
scalar DataCentricNet.host[19].net 	AverageNeighborLqi 	119.4
scalar DataCentricNet.host[19].net 	MaxNeighborLqi 	210
scalar DataCentricNet.host[19].net 	MinNeighborLqi 	34
scalar DataCentricNet.host[19].net 	TEST_LengthLatestInterestArrivalPeriod 	0
scalar DataCentricNet.host[19].net 	ignoreRatio 	0.6030303030303
scalar DataCentricNet.host[20].net 	NumberOfNeighbours 	4
scalar DataCentricNet.host[20].net 	TotalNeighborLqi 	487
scalar DataCentricNet.host[20].net 	AverageNeighborLqi 	121.75
scalar DataCentricNet.host[20].net 	MaxNeighborLqi 	159
scalar DataCentricNet.host[20].net 	MinNeighborLqi 	74
scalar DataCentricNet.host[20].net 	TEST_LengthLatestInterestArrivalPeriod 	0
scalar DataCentricNet.host[20].net 	ignoreRatio 	0.53416149068323
scalar DataCentricNet.host[21].net 	NumberOfNeighbours 	7
scalar DataCentricNet.host[21].net 	TotalNeighborLqi 	786
scalar DataCentricNet.host[21].net 	AverageNeighborLqi 	112.28571428571
scalar DataCentricNet.host[21].net 	MaxNeighborLqi 	187
scalar DataCentricNet.host[21].net 	MinNeighborLqi 	1
scalar DataCentricNet.host[21].net 	TEST_LengthLatestInterestArrivalPeriod 	0
scalar DataCentricNet.host[21].net 	ignoreRatio 	0.64822134387352
scalar DataCentricNet.host[22].net 	NumberOfNeighbours 	10
scalar DataCentricNet.host[22].net 	TotalNeighborLqi 	1492
scalar DataCentricNet.host[22].net 	AverageNeighborLqi 	149.2
scalar DataCentricNet.host[22].net 	MaxNeighborLqi 	240
scalar DataCentricNet.host[22].net 	MinNeighborLqi 	77
scalar DataCentricNet.host[22].net 	TEST_LengthLatestInterestArrivalPeriod 	0
scalar DataCentricNet.host[22].net 	ignoreRatio 	0.70382165605096
scalar DataCentricNet.host[23].net 	NumberOfNeighbours 	4
scalar DataCentricNet.host[23].net 	TotalNeighborLqi 	722
scalar DataCentricNet.host[23].net 	AverageNeighborLqi 	180.5
scalar DataCentricNet.host[23].net 	MaxNeighborLqi 	187
scalar DataCentricNet.host[23].net 	MinNeighborLqi 	164
scalar DataCentricNet.host[23].net 	TEST_LengthLatestInterestArrivalPeriod 	0
scalar DataCentricNet.host[23].net 	ignoreRatio 	0.68367346938776
scalar DataCentricNet.host[24].net 	NumberOfNeighbours 	7
scalar DataCentricNet.host[24].net 	TotalNeighborLqi 	837
scalar DataCentricNet.host[24].net 	AverageNeighborLqi 	119.57142857143
scalar DataCentricNet.host[24].net 	MaxNeighborLqi 	215
scalar DataCentricNet.host[24].net 	MinNeighborLqi 	58
scalar DataCentricNet.host[24].net 	TEST_LengthLatestInterestArrivalPeriod 	0
scalar DataCentricNet.host[24].net 	ignoreRatio 	0.16666666666667
scalar DataCentricNet.host[25].net 	NumberOfNeighbours 	8
scalar DataCentricNet.host[25].net 	TotalNeighborLqi 	796
scalar DataCentricNet.host[25].net 	AverageNeighborLqi 	99.5
scalar DataCentricNet.host[25].net 	MaxNeighborLqi 	151
scalar DataCentricNet.host[25].net 	MinNeighborLqi 	51
scalar DataCentricNet.host[25].net 	TEST_LengthLatestInterestArrivalPeriod 	0
scalar DataCentricNet.host[25].net 	ignoreRatio 	0.55612244897959
scalar DataCentricNet.host[26].net 	NumberOfNeighbours 	10
scalar DataCentricNet.host[26].net 	TotalNeighborLqi 	1045
scalar DataCentricNet.host[26].net 	AverageNeighborLqi 	104.5
scalar DataCentricNet.host[26].net 	MaxNeighborLqi 	174
scalar DataCentricNet.host[26].net 	MinNeighborLqi 	1
scalar DataCentricNet.host[26].net 	TEST_LengthLatestInterestArrivalPeriod 	0
scalar DataCentricNet.host[26].net 	ignoreRatio 	0.7122905027933
scalar DataCentricNet.host[27].net 	NumberOfNeighbours 	6
scalar DataCentricNet.host[27].net 	TotalNeighborLqi 	754
scalar DataCentricNet.host[27].net 	AverageNeighborLqi 	125.66666666667
scalar DataCentricNet.host[27].net 	MaxNeighborLqi 	194
scalar DataCentricNet.host[27].net 	MinNeighborLqi 	58
scalar DataCentricNet.host[27].net 	TEST_LengthLatestInterestArrivalPeriod 	0
scalar DataCentricNet.host[27].net 	ignoreRatio 	0.40845070422535
scalar DataCentricNet.host[28].net 	NumberOfNeighbours 	5
scalar DataCentricNet.host[28].net 	TotalNeighborLqi 	727
scalar DataCentricNet.host[28].net 	AverageNeighborLqi 	145.4
scalar DataCentricNet.host[28].net 	MaxNeighborLqi 	184
scalar DataCentricNet.host[28].net 	MinNeighborLqi 	77
scalar DataCentricNet.host[28].net 	TEST_LengthLatestInterestArrivalPeriod 	0
scalar DataCentricNet.host[28].net 	ignoreRatio 	0.65822784810127
scalar DataCentricNet.host[29].net 	NumberOfNeighbours 	8
scalar DataCentricNet.host[29].net 	TotalNeighborLqi 	1032
scalar DataCentricNet.host[29].net 	AverageNeighborLqi 	129
scalar DataCentricNet.host[29].net 	MaxNeighborLqi 	197
scalar DataCentricNet.host[29].net 	MinNeighborLqi 	64
scalar DataCentricNet.host[29].net 	TEST_LengthLatestInterestArrivalPeriod 	0
scalar DataCentricNet.host[29].net 	ignoreRatio 	0.60645161290323
scalar DataCentricNet.host[30].net 	NumberOfNeighbours 	5
scalar DataCentricNet.host[30].net 	TotalNeighborLqi 	976
scalar DataCentricNet.host[30].net 	AverageNeighborLqi 	195.2
scalar DataCentricNet.host[30].net 	MaxNeighborLqi 	250
scalar DataCentricNet.host[30].net 	MinNeighborLqi 	153
scalar DataCentricNet.host[30].net 	TEST_LengthLatestInterestArrivalPeriod 	0
scalar DataCentricNet.host[30].net 	ignoreRatio 	0.64628820960699
scalar DataCentricNet.host[31].net 	NumberOfNeighbours 	10
scalar DataCentricNet.host[31].net 	TotalNeighborLqi 	1134
scalar DataCentricNet.host[31].net 	AverageNeighborLqi 	113.4
scalar DataCentricNet.host[31].net 	MaxNeighborLqi 	199
scalar DataCentricNet.host[31].net 	MinNeighborLqi 	29
scalar DataCentricNet.host[31].net 	TEST_LengthLatestInterestArrivalPeriod 	0
scalar DataCentricNet.host[31].net 	ignoreRatio 	0.69714285714286
scalar DataCentricNet.host[32].net 	NumberOfNeighbours 	6
scalar DataCentricNet.host[32].net 	TotalNeighborLqi 	897
scalar DataCentricNet.host[32].net 	AverageNeighborLqi 	149.5
scalar DataCentricNet.host[32].net 	MaxNeighborLqi 	202
scalar DataCentricNet.host[32].net 	MinNeighborLqi 	113
scalar DataCentricNet.host[32].net 	TEST_LengthLatestInterestArrivalPeriod 	0
scalar DataCentricNet.host[32].net 	ignoreRatio 	0.72377622377622
scalar DataCentricNet.host[33].net 	NumberOfNeighbours 	5
scalar DataCentricNet.host[33].net 	TotalNeighborLqi 	873
scalar DataCentricNet.host[33].net 	AverageNeighborLqi 	174.6
scalar DataCentricNet.host[33].net 	MaxNeighborLqi 	210
scalar DataCentricNet.host[33].net 	MinNeighborLqi 	156
scalar DataCentricNet.host[33].net 	TEST_LengthLatestInterestArrivalPeriod 	0
scalar DataCentricNet.host[33].net 	ignoreRatio 	0.71777003484321
scalar DataCentricNet.host[34].net 	NumberOfNeighbours 	10
scalar DataCentricNet.host[34].net 	TotalNeighborLqi 	1237
scalar DataCentricNet.host[34].net 	AverageNeighborLqi 	123.7
scalar DataCentricNet.host[34].net 	MaxNeighborLqi 	210
scalar DataCentricNet.host[34].net 	MinNeighborLqi 	29
scalar DataCentricNet.host[34].net 	TEST_LengthLatestInterestArrivalPeriod 	0
scalar DataCentricNet.host[34].net 	ignoreRatio 	0.66349206349206
scalar DataCentricNet.host[35].net 	NumberOfNeighbours 	5
scalar DataCentricNet.host[35].net 	TotalNeighborLqi 	811
scalar DataCentricNet.host[35].net 	AverageNeighborLqi 	162.2
scalar DataCentricNet.host[35].net 	MaxNeighborLqi 	230
scalar DataCentricNet.host[35].net 	MinNeighborLqi 	92
scalar DataCentricNet.host[35].net 	TEST_LengthLatestInterestArrivalPeriod 	0
scalar DataCentricNet.host[35].net 	ignoreRatio 	0.57510729613734
scalar DataCentricNet.host[36].net 	NumberOfNeighbours 	10
scalar DataCentricNet.host[36].net 	TotalNeighborLqi 	992
scalar DataCentricNet.host[36].net 	AverageNeighborLqi 	99.2
scalar DataCentricNet.host[36].net 	MaxNeighborLqi 	184
scalar DataCentricNet.host[36].net 	MinNeighborLqi 	1
scalar DataCentricNet.host[36].net 	TEST_LengthLatestInterestArrivalPeriod 	0
scalar DataCentricNet.host[36].net 	ignoreRatio 	0.63716814159292
scalar DataCentricNet.host[37].net 	NumberOfNeighbours 	6
scalar DataCentricNet.host[37].net 	TotalNeighborLqi 	921
scalar DataCentricNet.host[37].net 	AverageNeighborLqi 	153.5
scalar DataCentricNet.host[37].net 	MaxNeighborLqi 	194
scalar DataCentricNet.host[37].net 	MinNeighborLqi 	92
scalar DataCentricNet.host[37].net 	TEST_LengthLatestInterestArrivalPeriod 	0
scalar DataCentricNet.host[37].net 	ignoreRatio 	0.6271186440678
scalar DataCentricNet.host[38].net 	NumberOfNeighbours 	6
scalar DataCentricNet.host[38].net 	TotalNeighborLqi 	783
scalar DataCentricNet.host[38].net 	AverageNeighborLqi 	130.5
scalar DataCentricNet.host[38].net 	MaxNeighborLqi 	207
scalar DataCentricNet.host[38].net 	MinNeighborLqi 	41
scalar DataCentricNet.host[38].net 	TEST_LengthLatestInterestArrivalPeriod 	0
scalar DataCentricNet.host[38].net 	ignoreRatio 	0.68897637795276
scalar DataCentricNet.host[39].net 	NumberOfNeighbours 	5
scalar DataCentricNet.host[39].net 	TotalNeighborLqi 	639
scalar DataCentricNet.host[39].net 	AverageNeighborLqi 	127.8
scalar DataCentricNet.host[39].net 	MaxNeighborLqi 	176
scalar DataCentricNet.host[39].net 	MinNeighborLqi 	51
scalar DataCentricNet.host[39].net 	TEST_LengthLatestInterestArrivalPeriod 	0
scalar DataCentricNet.host[39].net 	ignoreRatio 	0.64794007490637
scalar DataCentricNet.host[40].net 	NumberOfNeighbours 	10
scalar DataCentricNet.host[40].net 	TotalNeighborLqi 	887
scalar DataCentricNet.host[40].net 	AverageNeighborLqi 	88.7
scalar DataCentricNet.host[40].net 	MaxNeighborLqi 	182
scalar DataCentricNet.host[40].net 	MinNeighborLqi 	6
scalar DataCentricNet.host[40].net 	TEST_LengthLatestInterestArrivalPeriod 	0
scalar DataCentricNet.host[40].net 	ignoreRatio 	0.64459930313589
scalar DataCentricNet.host[41].net 	NumberOfNeighbours 	9
scalar DataCentricNet.host[41].net 	TotalNeighborLqi 	1231
scalar DataCentricNet.host[41].net 	AverageNeighborLqi 	136.77777777778
scalar DataCentricNet.host[41].net 	MaxNeighborLqi 	245
scalar DataCentricNet.host[41].net 	MinNeighborLqi 	51
scalar DataCentricNet.host[41].net 	TEST_LengthLatestInterestArrivalPeriod 	0
scalar DataCentricNet.host[41].net 	ignoreRatio 	0.67741935483871
scalar DataCentricNet.host[42].net 	NumberOfNeighbours 	6
scalar DataCentricNet.host[42].net 	TotalNeighborLqi 	1000
scalar DataCentricNet.host[42].net 	AverageNeighborLqi 	166.66666666667
scalar DataCentricNet.host[42].net 	MaxNeighborLqi 	225
scalar DataCentricNet.host[42].net 	MinNeighborLqi 	74
scalar DataCentricNet.host[42].net 	TEST_LengthLatestInterestArrivalPeriod 	0
scalar DataCentricNet.host[42].net 	ignoreRatio 	0.5978835978836
scalar DataCentricNet.host[43].net 	NumberOfNeighbours 	4
scalar DataCentricNet.host[43].net 	TotalNeighborLqi 	581
scalar DataCentricNet.host[43].net 	AverageNeighborLqi 	145.25
scalar DataCentricNet.host[43].net 	MaxNeighborLqi 	243
scalar DataCentricNet.host[43].net 	MinNeighborLqi 	69
scalar DataCentricNet.host[43].net 	TEST_LengthLatestInterestArrivalPeriod 	0
scalar DataCentricNet.host[43].net 	ignoreRatio 	0.66031746031746
scalar DataCentricNet.host[44].net 	NumberOfNeighbours 	8
scalar DataCentricNet.host[44].net 	TotalNeighborLqi 	660
scalar DataCentricNet.host[44].net 	AverageNeighborLqi 	82.5
scalar DataCentricNet.host[44].net 	MaxNeighborLqi 	151
scalar DataCentricNet.host[44].net 	MinNeighborLqi 	0
scalar DataCentricNet.host[44].net 	TEST_LengthLatestInterestArrivalPeriod 	0
scalar DataCentricNet.host[44].net 	ignoreRatio 	0.45108695652174
scalar DataCentricNet.host[45].net 	NumberOfNeighbours 	9
scalar DataCentricNet.host[45].net 	TotalNeighborLqi 	944
scalar DataCentricNet.host[45].net 	AverageNeighborLqi 	104.88888888889
scalar DataCentricNet.host[45].net 	MaxNeighborLqi 	212
scalar DataCentricNet.host[45].net 	MinNeighborLqi 	1
scalar DataCentricNet.host[45].net 	TEST_LengthLatestInterestArrivalPeriod 	0
scalar DataCentricNet.host[45].net 	ignoreRatio 	0.65486725663717
scalar DataCentricNet.host[46].net 	NumberOfNeighbours 	6
scalar DataCentricNet.host[46].net 	TotalNeighborLqi 	677
scalar DataCentricNet.host[46].net 	AverageNeighborLqi 	112.83333333333
scalar DataCentricNet.host[46].net 	MaxNeighborLqi 	207
scalar DataCentricNet.host[46].net 	MinNeighborLqi 	39
scalar DataCentricNet.host[46].net 	TEST_LengthLatestInterestArrivalPeriod 	0
scalar DataCentricNet.host[46].net 	ignoreRatio 	0.5359477124183
scalar DataCentricNet.host[47].net 	NumberOfNeighbours 	5
scalar DataCentricNet.host[47].net 	TotalNeighborLqi 	717
scalar DataCentricNet.host[47].net 	AverageNeighborLqi 	143.4
scalar DataCentricNet.host[47].net 	MaxNeighborLqi 	169
scalar DataCentricNet.host[47].net 	MinNeighborLqi 	113
scalar DataCentricNet.host[47].net 	TEST_LengthLatestInterestArrivalPeriod 	0
scalar DataCentricNet.host[47].net 	ignoreRatio 	0.5985401459854
scalar DataCentricNet.host[48].net 	NumberOfNeighbours 	7
scalar DataCentricNet.host[48].net 	TotalNeighborLqi 	877
scalar DataCentricNet.host[48].net 	AverageNeighborLqi 	125.28571428571
scalar DataCentricNet.host[48].net 	MaxNeighborLqi 	210
scalar DataCentricNet.host[48].net 	MinNeighborLqi 	41
scalar DataCentricNet.host[48].net 	TEST_LengthLatestInterestArrivalPeriod 	0
scalar DataCentricNet.host[48].net 	ignoreRatio 	0.68548387096774
scalar DataCentricNet.host[49].net 	NumberOfNeighbours 	5
scalar DataCentricNet.host[49].net 	TotalNeighborLqi 	834
scalar DataCentricNet.host[49].net 	AverageNeighborLqi 	166.8
scalar DataCentricNet.host[49].net 	MaxNeighborLqi 	215
scalar DataCentricNet.host[49].net 	MinNeighborLqi 	120
scalar DataCentricNet.host[49].net 	TEST_LengthLatestInterestArrivalPeriod 	0
scalar DataCentricNet.host[49].net 	ignoreRatio 	0.72906403940887
scalar DataCentricNet.host[50].net 	NumberOfNeighbours 	9
scalar DataCentricNet.host[50].net 	TotalNeighborLqi 	1059
scalar DataCentricNet.host[50].net 	AverageNeighborLqi 	117.66666666667
scalar DataCentricNet.host[50].net 	MaxNeighborLqi 	222
scalar DataCentricNet.host[50].net 	MinNeighborLqi 	23
scalar DataCentricNet.host[50].net 	TEST_LengthLatestInterestArrivalPeriod 	0
scalar DataCentricNet.host[50].net 	ignoreRatio 	0.55084745762712
scalar DataCentricNet.host[51].net 	NumberOfNeighbours 	8
scalar DataCentricNet.host[51].net 	TotalNeighborLqi 	911
scalar DataCentricNet.host[51].net 	AverageNeighborLqi 	113.875
scalar DataCentricNet.host[51].net 	MaxNeighborLqi 	169
scalar DataCentricNet.host[51].net 	MinNeighborLqi 	34
scalar DataCentricNet.host[51].net 	TEST_LengthLatestInterestArrivalPeriod 	0
scalar DataCentricNet.host[51].net 	ignoreRatio 	0.64741641337386
scalar DataCentricNet.host[52].net 	NumberOfNeighbours 	8
scalar DataCentricNet.host[52].net 	TotalNeighborLqi 	838
scalar DataCentricNet.host[52].net 	AverageNeighborLqi 	104.75
scalar DataCentricNet.host[52].net 	MaxNeighborLqi 	207
scalar DataCentricNet.host[52].net 	MinNeighborLqi 	1
scalar DataCentricNet.host[52].net 	TEST_LengthLatestInterestArrivalPeriod 	0
scalar DataCentricNet.host[52].net 	ignoreRatio 	0.69565217391304
scalar DataCentricNet.host[53].net 	NumberOfNeighbours 	7
scalar DataCentricNet.host[53].net 	TotalNeighborLqi 	782
scalar DataCentricNet.host[53].net 	AverageNeighborLqi 	111.71428571429
scalar DataCentricNet.host[53].net 	MaxNeighborLqi 	151
scalar DataCentricNet.host[53].net 	MinNeighborLqi 	72
scalar DataCentricNet.host[53].net 	TEST_LengthLatestInterestArrivalPeriod 	0
scalar DataCentricNet.host[53].net 	ignoreRatio 	0.5524861878453
scalar DataCentricNet.host[54].net 	NumberOfNeighbours 	11
scalar DataCentricNet.host[54].net 	TotalNeighborLqi 	1214
scalar DataCentricNet.host[54].net 	AverageNeighborLqi 	110.36363636364
scalar DataCentricNet.host[54].net 	MaxNeighborLqi 	166
scalar DataCentricNet.host[54].net 	MinNeighborLqi 	1
scalar DataCentricNet.host[54].net 	TEST_LengthLatestInterestArrivalPeriod 	0
scalar DataCentricNet.host[54].net 	ignoreRatio 	0.64942528735632
scalar DataCentricNet.host[55].net 	NumberOfNeighbours 	10
scalar DataCentricNet.host[55].net 	TotalNeighborLqi 	1082
scalar DataCentricNet.host[55].net 	AverageNeighborLqi 	108.2
scalar DataCentricNet.host[55].net 	MaxNeighborLqi 	159
scalar DataCentricNet.host[55].net 	MinNeighborLqi 	1
scalar DataCentricNet.host[55].net 	TEST_LengthLatestInterestArrivalPeriod 	0
scalar DataCentricNet.host[55].net 	ignoreRatio 	0.66760563380282
scalar DataCentricNet.host[56].net 	NumberOfNeighbours 	7
scalar DataCentricNet.host[56].net 	TotalNeighborLqi 	724
scalar DataCentricNet.host[56].net 	AverageNeighborLqi 	103.42857142857
scalar DataCentricNet.host[56].net 	MaxNeighborLqi 	171
scalar DataCentricNet.host[56].net 	MinNeighborLqi 	1
scalar DataCentricNet.host[56].net 	TEST_LengthLatestInterestArrivalPeriod 	0
scalar DataCentricNet.host[56].net 	ignoreRatio 	0.66793893129771
scalar DataCentricNet.host[57].net 	NumberOfNeighbours 	5
scalar DataCentricNet.host[57].net 	TotalNeighborLqi 	498
scalar DataCentricNet.host[57].net 	AverageNeighborLqi 	99.6
scalar DataCentricNet.host[57].net 	MaxNeighborLqi 	202
scalar DataCentricNet.host[57].net 	MinNeighborLqi 	1
scalar DataCentricNet.host[57].net 	TEST_LengthLatestInterestArrivalPeriod 	0
scalar DataCentricNet.host[57].net 	ignoreRatio 	0.59310344827586
scalar DataCentricNet.host[58].net 	NumberOfNeighbours 	8
scalar DataCentricNet.host[58].net 	TotalNeighborLqi 	727
scalar DataCentricNet.host[58].net 	AverageNeighborLqi 	90.875
scalar DataCentricNet.host[58].net 	MaxNeighborLqi 	146
scalar DataCentricNet.host[58].net 	MinNeighborLqi 	1
scalar DataCentricNet.host[58].net 	TEST_LengthLatestInterestArrivalPeriod 	0
scalar DataCentricNet.host[58].net 	ignoreRatio 	0.56828193832599
scalar DataCentricNet.host[59].net 	NumberOfNeighbours 	4
scalar DataCentricNet.host[59].net 	TotalNeighborLqi 	665
scalar DataCentricNet.host[59].net 	AverageNeighborLqi 	166.25
scalar DataCentricNet.host[59].net 	MaxNeighborLqi 	235
scalar DataCentricNet.host[59].net 	MinNeighborLqi 	74
scalar DataCentricNet.host[59].net 	TEST_LengthLatestInterestArrivalPeriod 	0
scalar DataCentricNet.host[59].net 	ignoreRatio 	0.64848484848485
scalar DataCentricNet.host[60].net 	NumberOfNeighbours 	7
scalar DataCentricNet.host[60].net 	TotalNeighborLqi 	430
scalar DataCentricNet.host[60].net 	AverageNeighborLqi 	61.428571428571
scalar DataCentricNet.host[60].net 	MaxNeighborLqi 	97
scalar DataCentricNet.host[60].net 	MinNeighborLqi 	1
scalar DataCentricNet.host[60].net 	TEST_LengthLatestInterestArrivalPeriod 	0
scalar DataCentricNet.host[60].net 	ignoreRatio 	0.51904761904762
scalar DataCentricNet.host[61].net 	NumberOfNeighbours 	10
scalar DataCentricNet.host[61].net 	TotalNeighborLqi 	1163
scalar DataCentricNet.host[61].net 	AverageNeighborLqi 	116.3
scalar DataCentricNet.host[61].net 	MaxNeighborLqi 	164
scalar DataCentricNet.host[61].net 	MinNeighborLqi 	54
scalar DataCentricNet.host[61].net 	TEST_LengthLatestInterestArrivalPeriod 	0
scalar DataCentricNet.host[61].net 	ignoreRatio 	0.67619047619048
scalar DataCentricNet.host[62].net 	NumberOfNeighbours 	5
scalar DataCentricNet.host[62].net 	TotalNeighborLqi 	577
scalar DataCentricNet.host[62].net 	AverageNeighborLqi 	115.4
scalar DataCentricNet.host[62].net 	MaxNeighborLqi 	197
scalar DataCentricNet.host[62].net 	MinNeighborLqi 	1
scalar DataCentricNet.host[62].net 	TEST_LengthLatestInterestArrivalPeriod 	0
scalar DataCentricNet.host[62].net 	ignoreRatio 	0.58219178082192
scalar DataCentricNet.host[63].net 	NumberOfNeighbours 	5
scalar DataCentricNet.host[63].net 	TotalNeighborLqi 	811
scalar DataCentricNet.host[63].net 	AverageNeighborLqi 	162.2
scalar DataCentricNet.host[63].net 	MaxNeighborLqi 	199
scalar DataCentricNet.host[63].net 	MinNeighborLqi 	77
scalar DataCentricNet.host[63].net 	TEST_LengthLatestInterestArrivalPeriod 	0
scalar DataCentricNet.host[63].net 	ignoreRatio 	0.70391061452514
scalar DataCentricNet.host[64].net 	NumberOfNeighbours 	8
scalar DataCentricNet.host[64].net 	TotalNeighborLqi 	1109
scalar DataCentricNet.host[64].net 	AverageNeighborLqi 	138.625
scalar DataCentricNet.host[64].net 	MaxNeighborLqi 	233
scalar DataCentricNet.host[64].net 	MinNeighborLqi 	21
scalar DataCentricNet.host[64].net 	TEST_LengthLatestInterestArrivalPeriod 	0
scalar DataCentricNet.host[64].net 	ignoreRatio 	0.653125
scalar DataCentricNet.host[65].net 	NumberOfNeighbours 	10
scalar DataCentricNet.host[65].net 	TotalNeighborLqi 	957
scalar DataCentricNet.host[65].net 	AverageNeighborLqi 	95.7
scalar DataCentricNet.host[65].net 	MaxNeighborLqi 	182
scalar DataCentricNet.host[65].net 	MinNeighborLqi 	1
scalar DataCentricNet.host[65].net 	TEST_LengthLatestInterestArrivalPeriod 	0
scalar DataCentricNet.host[65].net 	ignoreRatio 	0.68601583113456
scalar DataCentricNet.host[66].net 	NumberOfNeighbours 	5
scalar DataCentricNet.host[66].net 	TotalNeighborLqi 	650
scalar DataCentricNet.host[66].net 	AverageNeighborLqi 	130
scalar DataCentricNet.host[66].net 	MaxNeighborLqi 	169
scalar DataCentricNet.host[66].net 	MinNeighborLqi 	51
scalar DataCentricNet.host[66].net 	TEST_LengthLatestInterestArrivalPeriod 	0
scalar DataCentricNet.host[66].net 	ignoreRatio 	0.6962457337884
scalar DataCentricNet.host[67].net 	NumberOfNeighbours 	7
scalar DataCentricNet.host[67].net 	TotalNeighborLqi 	987
scalar DataCentricNet.host[67].net 	AverageNeighborLqi 	141
scalar DataCentricNet.host[67].net 	MaxNeighborLqi 	245
scalar DataCentricNet.host[67].net 	MinNeighborLqi 	51
scalar DataCentricNet.host[67].net 	TEST_LengthLatestInterestArrivalPeriod 	0
scalar DataCentricNet.host[67].net 	ignoreRatio 	0.58620689655172
scalar DataCentricNet.host[68].net 	NumberOfNeighbours 	9
scalar DataCentricNet.host[68].net 	TotalNeighborLqi 	1346
scalar DataCentricNet.host[68].net 	AverageNeighborLqi 	149.55555555556
scalar DataCentricNet.host[68].net 	MaxNeighborLqi 	245
scalar DataCentricNet.host[68].net 	MinNeighborLqi 	77
scalar DataCentricNet.host[68].net 	TEST_LengthLatestInterestArrivalPeriod 	0
scalar DataCentricNet.host[68].net 	ignoreRatio 	0.58878504672897
scalar DataCentricNet.host[69].net 	NumberOfNeighbours 	9
scalar DataCentricNet.host[69].net 	TotalNeighborLqi 	813
scalar DataCentricNet.host[69].net 	AverageNeighborLqi 	90.333333333333
scalar DataCentricNet.host[69].net 	MaxNeighborLqi 	146
scalar DataCentricNet.host[69].net 	MinNeighborLqi 	1
scalar DataCentricNet.host[69].net 	TEST_LengthLatestInterestArrivalPeriod 	0
scalar DataCentricNet.host[69].net 	ignoreRatio 	0.52486187845304
scalar DataCentricNet.host[70].net 	NumberOfNeighbours 	9
scalar DataCentricNet.host[70].net 	TotalNeighborLqi 	1394
scalar DataCentricNet.host[70].net 	AverageNeighborLqi 	154.88888888889
scalar DataCentricNet.host[70].net 	MaxNeighborLqi 	255
scalar DataCentricNet.host[70].net 	MinNeighborLqi 	87
scalar DataCentricNet.host[70].net 	TEST_LengthLatestInterestArrivalPeriod 	0
scalar DataCentricNet.host[70].net 	ignoreRatio 	0.63949843260188
scalar DataCentricNet.host[71].net 	NumberOfNeighbours 	10
scalar DataCentricNet.host[71].net 	TotalNeighborLqi 	1122
scalar DataCentricNet.host[71].net 	AverageNeighborLqi 	112.2
scalar DataCentricNet.host[71].net 	MaxNeighborLqi 	194
scalar DataCentricNet.host[71].net 	MinNeighborLqi 	1
scalar DataCentricNet.host[71].net 	TEST_LengthLatestInterestArrivalPeriod 	0
scalar DataCentricNet.host[71].net 	ignoreRatio 	0.66025641025641
scalar DataCentricNet.host[72].net 	NumberOfNeighbours 	8
scalar DataCentricNet.host[72].net 	TotalNeighborLqi 	1019
scalar DataCentricNet.host[72].net 	AverageNeighborLqi 	127.375
scalar DataCentricNet.host[72].net 	MaxNeighborLqi 	235
scalar DataCentricNet.host[72].net 	MinNeighborLqi 	29
scalar DataCentricNet.host[72].net 	TEST_LengthLatestInterestArrivalPeriod 	0
scalar DataCentricNet.host[72].net 	ignoreRatio 	0.636
scalar DataCentricNet.host[73].net 	NumberOfNeighbours 	8
scalar DataCentricNet.host[73].net 	TotalNeighborLqi 	1208
scalar DataCentricNet.host[73].net 	AverageNeighborLqi 	151
scalar DataCentricNet.host[73].net 	MaxNeighborLqi 	220
scalar DataCentricNet.host[73].net 	MinNeighborLqi 	102
scalar DataCentricNet.host[73].net 	TEST_LengthLatestInterestArrivalPeriod 	0
scalar DataCentricNet.host[73].net 	ignoreRatio 	0.61111111111111
scalar DataCentricNet.host[74].net 	NumberOfNeighbours 	8
scalar DataCentricNet.host[74].net 	TotalNeighborLqi 	904
scalar DataCentricNet.host[74].net 	AverageNeighborLqi 	113
scalar DataCentricNet.host[74].net 	MaxNeighborLqi 	226
scalar DataCentricNet.host[74].net 	MinNeighborLqi 	1
scalar DataCentricNet.host[74].net 	TEST_LengthLatestInterestArrivalPeriod 	0
scalar DataCentricNet.host[74].net 	ignoreRatio 	0.55492957746479
scalar DataCentricNet.host[75].net 	NumberOfNeighbours 	4
scalar DataCentricNet.host[75].net 	TotalNeighborLqi 	787
scalar DataCentricNet.host[75].net 	AverageNeighborLqi 	196.75
scalar DataCentricNet.host[75].net 	MaxNeighborLqi 	217
scalar DataCentricNet.host[75].net 	MinNeighborLqi 	166
scalar DataCentricNet.host[75].net 	TEST_LengthLatestInterestArrivalPeriod 	0
scalar DataCentricNet.host[75].net 	ignoreRatio 	0.70196078431373
scalar DataCentricNet.host[76].net 	NumberOfNeighbours 	10
scalar DataCentricNet.host[76].net 	TotalNeighborLqi 	1083
scalar DataCentricNet.host[76].net 	AverageNeighborLqi 	108.3
scalar DataCentricNet.host[76].net 	MaxNeighborLqi 	189
scalar DataCentricNet.host[76].net 	MinNeighborLqi 	1
scalar DataCentricNet.host[76].net 	TEST_LengthLatestInterestArrivalPeriod 	0
scalar DataCentricNet.host[76].net 	ignoreRatio 	0.67741935483871
scalar DataCentricNet.host[77].net 	NumberOfNeighbours 	5
scalar DataCentricNet.host[77].net 	TotalNeighborLqi 	833
scalar DataCentricNet.host[77].net 	AverageNeighborLqi 	166.6
scalar DataCentricNet.host[77].net 	MaxNeighborLqi 	222
scalar DataCentricNet.host[77].net 	MinNeighborLqi 	51
scalar DataCentricNet.host[77].net 	TEST_LengthLatestInterestArrivalPeriod 	0
scalar DataCentricNet.host[77].net 	ignoreRatio 	0.74193548387097
scalar DataCentricNet.host[78].net 	NumberOfNeighbours 	7
scalar DataCentricNet.host[78].net 	TotalNeighborLqi 	822
scalar DataCentricNet.host[78].net 	AverageNeighborLqi 	117.42857142857
scalar DataCentricNet.host[78].net 	MaxNeighborLqi 	182
scalar DataCentricNet.host[78].net 	MinNeighborLqi 	23
scalar DataCentricNet.host[78].net 	TEST_LengthLatestInterestArrivalPeriod 	0
scalar DataCentricNet.host[78].net 	ignoreRatio 	0.54088050314465
scalar DataCentricNet.host[79].net 	NumberOfNeighbours 	7
scalar DataCentricNet.host[79].net 	TotalNeighborLqi 	726
scalar DataCentricNet.host[79].net 	AverageNeighborLqi 	103.71428571429
scalar DataCentricNet.host[79].net 	MaxNeighborLqi 	156
scalar DataCentricNet.host[79].net 	MinNeighborLqi 	51
scalar DataCentricNet.host[79].net 	TEST_LengthLatestInterestArrivalPeriod 	0
scalar DataCentricNet.host[79].net 	ignoreRatio 	0.45637583892617
scalar DataCentricNet.host[80].net 	NumberOfNeighbours 	8
scalar DataCentricNet.host[80].net 	TotalNeighborLqi 	1078
scalar DataCentricNet.host[80].net 	AverageNeighborLqi 	134.75
scalar DataCentricNet.host[80].net 	MaxNeighborLqi 	215
scalar DataCentricNet.host[80].net 	MinNeighborLqi 	74
scalar DataCentricNet.host[80].net 	TEST_LengthLatestInterestArrivalPeriod 	0
scalar DataCentricNet.host[80].net 	ignoreRatio 	0.63070539419087
scalar DataCentricNet.host[81].net 	NumberOfNeighbours 	11
scalar DataCentricNet.host[81].net 	TotalNeighborLqi 	1164
scalar DataCentricNet.host[81].net 	AverageNeighborLqi 	105.81818181818
scalar DataCentricNet.host[81].net 	MaxNeighborLqi 	202
scalar DataCentricNet.host[81].net 	MinNeighborLqi 	1
scalar DataCentricNet.host[81].net 	TEST_LengthLatestInterestArrivalPeriod 	0
scalar DataCentricNet.host[81].net 	ignoreRatio 	0.68733153638814
scalar DataCentricNet.host[82].net 	NumberOfNeighbours 	5
scalar DataCentricNet.host[82].net 	TotalNeighborLqi 	757
scalar DataCentricNet.host[82].net 	AverageNeighborLqi 	151.4
scalar DataCentricNet.host[82].net 	MaxNeighborLqi 	204
scalar DataCentricNet.host[82].net 	MinNeighborLqi 	74
scalar DataCentricNet.host[82].net 	TEST_LengthLatestInterestArrivalPeriod 	0
scalar DataCentricNet.host[82].net 	ignoreRatio 	0.58297872340426
scalar DataCentricNet.host[83].net 	NumberOfNeighbours 	5
scalar DataCentricNet.host[83].net 	TotalNeighborLqi 	867
scalar DataCentricNet.host[83].net 	AverageNeighborLqi 	173.4
scalar DataCentricNet.host[83].net 	MaxNeighborLqi 	217
scalar DataCentricNet.host[83].net 	MinNeighborLqi 	131
scalar DataCentricNet.host[83].net 	TEST_LengthLatestInterestArrivalPeriod 	0
scalar DataCentricNet.host[83].net 	ignoreRatio 	0.70984455958549
scalar DataCentricNet.host[84].net 	NumberOfNeighbours 	6
scalar DataCentricNet.host[84].net 	TotalNeighborLqi 	807
scalar DataCentricNet.host[84].net 	AverageNeighborLqi 	134.5
scalar DataCentricNet.host[84].net 	MaxNeighborLqi 	207
scalar DataCentricNet.host[84].net 	MinNeighborLqi 	1
scalar DataCentricNet.host[84].net 	TEST_LengthLatestInterestArrivalPeriod 	0
scalar DataCentricNet.host[84].net 	ignoreRatio 	0.72945205479452
scalar DataCentricNet.host[85].net 	NumberOfNeighbours 	4
scalar DataCentricNet.host[85].net 	TotalNeighborLqi 	592
scalar DataCentricNet.host[85].net 	AverageNeighborLqi 	148
scalar DataCentricNet.host[85].net 	MaxNeighborLqi 	182
scalar DataCentricNet.host[85].net 	MinNeighborLqi 	128
scalar DataCentricNet.host[85].net 	TEST_LengthLatestInterestArrivalPeriod 	0
scalar DataCentricNet.host[85].net 	ignoreRatio 	0.59030837004405
scalar DataCentricNet.host[86].net 	NumberOfNeighbours 	6
scalar DataCentricNet.host[86].net 	TotalNeighborLqi 	647
scalar DataCentricNet.host[86].net 	AverageNeighborLqi 	107.83333333333
scalar DataCentricNet.host[86].net 	MaxNeighborLqi 	194
scalar DataCentricNet.host[86].net 	MinNeighborLqi 	8
scalar DataCentricNet.host[86].net 	TEST_LengthLatestInterestArrivalPeriod 	0
scalar DataCentricNet.host[86].net 	ignoreRatio 	0.60289855072464
scalar DataCentricNet.host[87].net 	NumberOfNeighbours 	6
scalar DataCentricNet.host[87].net 	TotalNeighborLqi 	803
scalar DataCentricNet.host[87].net 	AverageNeighborLqi 	133.83333333333
scalar DataCentricNet.host[87].net 	MaxNeighborLqi 	210
scalar DataCentricNet.host[87].net 	MinNeighborLqi 	36
scalar DataCentricNet.host[87].net 	TEST_LengthLatestInterestArrivalPeriod 	0
scalar DataCentricNet.host[87].net 	ignoreRatio 	0.70967741935484
scalar DataCentricNet.host[88].net 	NumberOfNeighbours 	5
scalar DataCentricNet.host[88].net 	TotalNeighborLqi 	961
scalar DataCentricNet.host[88].net 	AverageNeighborLqi 	192.2
scalar DataCentricNet.host[88].net 	MaxNeighborLqi 	230
scalar DataCentricNet.host[88].net 	MinNeighborLqi 	148
scalar DataCentricNet.host[88].net 	TEST_LengthLatestInterestArrivalPeriod 	0
scalar DataCentricNet.host[88].net 	ignoreRatio 	0.69727891156463
scalar DataCentricNet.host[89].net 	NumberOfNeighbours 	10
scalar DataCentricNet.host[89].net 	TotalNeighborLqi 	1278
scalar DataCentricNet.host[89].net 	AverageNeighborLqi 	127.8
scalar DataCentricNet.host[89].net 	MaxNeighborLqi 	194
scalar DataCentricNet.host[89].net 	MinNeighborLqi 	23
scalar DataCentricNet.host[89].net 	TEST_LengthLatestInterestArrivalPeriod 	0
scalar DataCentricNet.host[89].net 	ignoreRatio 	0.70226537216828
scalar DataCentricNet.host[90].net 	NumberOfNeighbours 	8
scalar DataCentricNet.host[90].net 	TotalNeighborLqi 	739
scalar DataCentricNet.host[90].net 	AverageNeighborLqi 	92.375
scalar DataCentricNet.host[90].net 	MaxNeighborLqi 	131
scalar DataCentricNet.host[90].net 	MinNeighborLqi 	36
scalar DataCentricNet.host[90].net 	TEST_LengthLatestInterestArrivalPeriod 	0
scalar DataCentricNet.host[90].net 	ignoreRatio 	0.57635467980296
scalar DataCentricNet.host[91].net 	NumberOfNeighbours 	5
scalar DataCentricNet.host[91].net 	TotalNeighborLqi 	841
scalar DataCentricNet.host[91].net 	AverageNeighborLqi 	168.2
scalar DataCentricNet.host[91].net 	MaxNeighborLqi 	199
scalar DataCentricNet.host[91].net 	MinNeighborLqi 	141
scalar DataCentricNet.host[91].net 	TEST_LengthLatestInterestArrivalPeriod 	0
scalar DataCentricNet.host[91].net 	ignoreRatio 	0.66
scalar DataCentricNet.host[92].net 	NumberOfNeighbours 	6
scalar DataCentricNet.host[92].net 	TotalNeighborLqi 	907
scalar DataCentricNet.host[92].net 	AverageNeighborLqi 	151.16666666667
scalar DataCentricNet.host[92].net 	MaxNeighborLqi 	230
scalar DataCentricNet.host[92].net 	MinNeighborLqi 	92
scalar DataCentricNet.host[92].net 	TEST_LengthLatestInterestArrivalPeriod 	0
scalar DataCentricNet.host[92].net 	ignoreRatio 	0.73309608540925
scalar DataCentricNet.host[93].net 	NumberOfNeighbours 	10
scalar DataCentricNet.host[93].net 	TotalNeighborLqi 	1045
scalar DataCentricNet.host[93].net 	AverageNeighborLqi 	104.5
scalar DataCentricNet.host[93].net 	MaxNeighborLqi 	189
scalar DataCentricNet.host[93].net 	MinNeighborLqi 	1
scalar DataCentricNet.host[93].net 	TEST_LengthLatestInterestArrivalPeriod 	0
scalar DataCentricNet.host[93].net 	ignoreRatio 	0.69206349206349
scalar DataCentricNet.host[94].net 	NumberOfNeighbours 	6
scalar DataCentricNet.host[94].net 	TotalNeighborLqi 	891
scalar DataCentricNet.host[94].net 	AverageNeighborLqi 	148.5
scalar DataCentricNet.host[94].net 	MaxNeighborLqi 	225
scalar DataCentricNet.host[94].net 	MinNeighborLqi 	77
scalar DataCentricNet.host[94].net 	TEST_LengthLatestInterestArrivalPeriod 	0
scalar DataCentricNet.host[94].net 	ignoreRatio 	0.66190476190476
scalar DataCentricNet.host[95].net 	NumberOfNeighbours 	9
scalar DataCentricNet.host[95].net 	TotalNeighborLqi 	1077
scalar DataCentricNet.host[95].net 	AverageNeighborLqi 	119.66666666667
scalar DataCentricNet.host[95].net 	MaxNeighborLqi 	210
scalar DataCentricNet.host[95].net 	MinNeighborLqi 	67
scalar DataCentricNet.host[95].net 	TEST_LengthLatestInterestArrivalPeriod 	0
scalar DataCentricNet.host[95].net 	ignoreRatio 	0.62017804154303
scalar DataCentricNet.host[96].net 	NumberOfNeighbours 	6
scalar DataCentricNet.host[96].net 	TotalNeighborLqi 	958
scalar DataCentricNet.host[96].net 	AverageNeighborLqi 	159.66666666667
scalar DataCentricNet.host[96].net 	MaxNeighborLqi 	222
scalar DataCentricNet.host[96].net 	MinNeighborLqi 	92
scalar DataCentricNet.host[96].net 	TEST_LengthLatestInterestArrivalPeriod 	0
scalar DataCentricNet.host[96].net 	ignoreRatio 	0.60517799352751
scalar DataCentricNet.host[97].net 	NumberOfNeighbours 	9
scalar DataCentricNet.host[97].net 	TotalNeighborLqi 	818
scalar DataCentricNet.host[97].net 	AverageNeighborLqi 	90.888888888889
scalar DataCentricNet.host[97].net 	MaxNeighborLqi 	151
scalar DataCentricNet.host[97].net 	MinNeighborLqi 	1
scalar DataCentricNet.host[97].net 	TEST_LengthLatestInterestArrivalPeriod 	0
scalar DataCentricNet.host[97].net 	ignoreRatio 	0.49162011173184
scalar DataCentricNet.host[98].net 	NumberOfNeighbours 	8
scalar DataCentricNet.host[98].net 	TotalNeighborLqi 	754
scalar DataCentricNet.host[98].net 	AverageNeighborLqi 	94.25
scalar DataCentricNet.host[98].net 	MaxNeighborLqi 	156
scalar DataCentricNet.host[98].net 	MinNeighborLqi 	1
scalar DataCentricNet.host[98].net 	TEST_LengthLatestInterestArrivalPeriod 	0
scalar DataCentricNet.host[98].net 	ignoreRatio 	0.64792899408284
scalar DataCentricNet.host[99].net 	NumberOfNeighbours 	10
scalar DataCentricNet.host[99].net 	TotalNeighborLqi 	1017
scalar DataCentricNet.host[99].net 	AverageNeighborLqi 	101.7
scalar DataCentricNet.host[99].net 	MaxNeighborLqi 	210
scalar DataCentricNet.host[99].net 	MinNeighborLqi 	1
scalar DataCentricNet.host[99].net 	TEST_LengthLatestInterestArrivalPeriod 	0
scalar DataCentricNet.host[99].net 	ignoreRatio 	0.70056497175141
scalar DataCentricNet.host[100].net 	NumberOfNeighbours 	9
scalar DataCentricNet.host[100].net 	TotalNeighborLqi 	1257
scalar DataCentricNet.host[100].net 	AverageNeighborLqi 	139.66666666667
scalar DataCentricNet.host[100].net 	MaxNeighborLqi 	166
scalar DataCentricNet.host[100].net 	MinNeighborLqi 	110
scalar DataCentricNet.host[100].net 	TEST_LengthLatestInterestArrivalPeriod 	0
scalar DataCentricNet.host[100].net 	ignoreRatio 	0.628125
scalar DataCentricNet.host[101].net 	NumberOfNeighbours 	7
scalar DataCentricNet.host[101].net 	TotalNeighborLqi 	1041
scalar DataCentricNet.host[101].net 	AverageNeighborLqi 	148.71428571429
scalar DataCentricNet.host[101].net 	MaxNeighborLqi 	248
scalar DataCentricNet.host[101].net 	MinNeighborLqi 	36
scalar DataCentricNet.host[101].net 	TEST_LengthLatestInterestArrivalPeriod 	0
scalar DataCentricNet.host[101].net 	ignoreRatio 	0.70508474576271
scalar DataCentricNet.dataCentricNetworkMan 	DataArrivals 	156
scalar DataCentricNet.dataCentricNetworkMan 	PercentageArrivals 	100
scalar DataCentricNet.dataCentricNetworkMan 	DataFailures 	0
scalar DataCentricNet.dataCentricNetworkMan 	PercentageFailures 	0
scalar DataCentricNet.dataCentricNetworkMan 	MeanE2EDelay 	0.025564179653462
scalar DataCentricNet.dataCentricNetworkMan 	StdDevE2EDelay 	0.015717237812678
scalar DataCentricNet.dataCentricNetworkMan 	MaxE2EDelay 	0.085370866924
scalar DataCentricNet.dataCentricNetworkMan 	MinE2EDelay 	0.003121275524
scalar DataCentricNet.dataCentricNetworkMan 	numControlPackets 	1223
scalar DataCentricNet.dataCentricNetworkMan 	MeanBPS 	0
scalar DataCentricNet.dataCentricNetworkMan 	StdDevBPS 	-1.#IND
scalar DataCentricNet.dataCentricNetworkMan 	MaxBPS 	0
scalar DataCentricNet.dataCentricNetworkMan 	MinBPS 	0
