version 2
run DataCentric_Experiment_1-16-20121204-14:20:43-3020
attr configname DataCentric_Experiment_1
attr datetime 20121204-14:20:43
attr experiment DataCentric_Experiment_1
attr inifile DataCentric_2.ini
attr iterationvars $numNodes=66
attr iterationvars2 "$numNodes=66, $repetition=0"
attr measurement $numNodes=66
attr network DataCentricNet
attr numNodes 66
attr processid 3020
attr repetition 0
attr replication #0
attr resultdir results
attr runnumber 16
attr seedset 16

scalar . 	numNodes 	66
scalar DataCentricNet.host[0].net 	NumberOfNeighbours 	7
scalar DataCentricNet.host[0].net 	TotalNeighborLqi 	919
scalar DataCentricNet.host[0].net 	AverageNeighborLqi 	131.28571428571
scalar DataCentricNet.host[0].net 	MaxNeighborLqi 	213
scalar DataCentricNet.host[0].net 	MinNeighborLqi 	0
scalar DataCentricNet.host[0].net 	TEST_LengthLatestInterestArrivalPeriod 	0
scalar DataCentricNet.host[0].net 	ignoreRatio 	0.51724137931034
scalar DataCentricNet.host[1].net 	NumberOfNeighbours 	6
scalar DataCentricNet.host[1].net 	TotalNeighborLqi 	776
scalar DataCentricNet.host[1].net 	AverageNeighborLqi 	129.33333333333
scalar DataCentricNet.host[1].net 	MaxNeighborLqi 	221
scalar DataCentricNet.host[1].net 	MinNeighborLqi 	0
scalar DataCentricNet.host[1].net 	TEST_LengthLatestInterestArrivalPeriod 	0
scalar DataCentricNet.host[1].net 	ignoreRatio 	0.43220338983051
scalar DataCentricNet.host[2].net 	NumberOfNeighbours 	7
scalar DataCentricNet.host[2].net 	TotalNeighborLqi 	866
scalar DataCentricNet.host[2].net 	AverageNeighborLqi 	123.71428571429
scalar DataCentricNet.host[2].net 	MaxNeighborLqi 	202
scalar DataCentricNet.host[2].net 	MinNeighborLqi 	0
scalar DataCentricNet.host[2].net 	TEST_LengthLatestInterestArrivalPeriod 	0
scalar DataCentricNet.host[2].net 	ignoreRatio 	0.65116279069767
scalar DataCentricNet.host[3].net 	NumberOfNeighbours 	5
scalar DataCentricNet.host[3].net 	TotalNeighborLqi 	798
scalar DataCentricNet.host[3].net 	AverageNeighborLqi 	159.6
scalar DataCentricNet.host[3].net 	MaxNeighborLqi 	204
scalar DataCentricNet.host[3].net 	MinNeighborLqi 	58
scalar DataCentricNet.host[3].net 	TEST_LengthLatestInterestArrivalPeriod 	0
scalar DataCentricNet.host[3].net 	ignoreRatio 	0.41071428571429
scalar DataCentricNet.host[4].net 	NumberOfNeighbours 	7
scalar DataCentricNet.host[4].net 	TotalNeighborLqi 	785
scalar DataCentricNet.host[4].net 	AverageNeighborLqi 	112.14285714286
scalar DataCentricNet.host[4].net 	MaxNeighborLqi 	203
scalar DataCentricNet.host[4].net 	MinNeighborLqi 	0
scalar DataCentricNet.host[4].net 	TEST_LengthLatestInterestArrivalPeriod 	0
scalar DataCentricNet.host[4].net 	ignoreRatio 	0.68235294117647
scalar DataCentricNet.host[5].net 	NumberOfNeighbours 	4
scalar DataCentricNet.host[5].net 	TotalNeighborLqi 	406
scalar DataCentricNet.host[5].net 	AverageNeighborLqi 	101.5
scalar DataCentricNet.host[5].net 	MaxNeighborLqi 	138
scalar DataCentricNet.host[5].net 	MinNeighborLqi 	58
scalar DataCentricNet.host[5].net 	TEST_LengthLatestInterestArrivalPeriod 	0
scalar DataCentricNet.host[5].net 	ignoreRatio 	0.32894736842105
scalar DataCentricNet.host[6].net 	NumberOfNeighbours 	5
scalar DataCentricNet.host[6].net 	TotalNeighborLqi 	621
scalar DataCentricNet.host[6].net 	AverageNeighborLqi 	124.2
scalar DataCentricNet.host[6].net 	MaxNeighborLqi 	235
scalar DataCentricNet.host[6].net 	MinNeighborLqi 	58
scalar DataCentricNet.host[6].net 	TEST_LengthLatestInterestArrivalPeriod 	0
scalar DataCentricNet.host[6].net 	ignoreRatio 	0.42553191489362
scalar DataCentricNet.host[7].net 	NumberOfNeighbours 	7
scalar DataCentricNet.host[7].net 	TotalNeighborLqi 	1053
scalar DataCentricNet.host[7].net 	AverageNeighborLqi 	150.42857142857
scalar DataCentricNet.host[7].net 	MaxNeighborLqi 	222
scalar DataCentricNet.host[7].net 	MinNeighborLqi 	58
scalar DataCentricNet.host[7].net 	TEST_LengthLatestInterestArrivalPeriod 	0
scalar DataCentricNet.host[7].net 	ignoreRatio 	0.60194174757282
scalar DataCentricNet.host[8].net 	NumberOfNeighbours 	7
scalar DataCentricNet.host[8].net 	TotalNeighborLqi 	711
scalar DataCentricNet.host[8].net 	AverageNeighborLqi 	101.57142857143
scalar DataCentricNet.host[8].net 	MaxNeighborLqi 	161
scalar DataCentricNet.host[8].net 	MinNeighborLqi 	54
scalar DataCentricNet.host[8].net 	TEST_LengthLatestInterestArrivalPeriod 	0
scalar DataCentricNet.host[8].net 	ignoreRatio 	0.21428571428571
scalar DataCentricNet.host[9].net 	NumberOfNeighbours 	9
scalar DataCentricNet.host[9].net 	TotalNeighborLqi 	1148
scalar DataCentricNet.host[9].net 	AverageNeighborLqi 	127.55555555556
scalar DataCentricNet.host[9].net 	MaxNeighborLqi 	204
scalar DataCentricNet.host[9].net 	MinNeighborLqi 	1
scalar DataCentricNet.host[9].net 	TEST_LengthLatestInterestArrivalPeriod 	0
scalar DataCentricNet.host[9].net 	ignoreRatio 	0.4954128440367
scalar DataCentricNet.host[10].net 	NumberOfNeighbours 	7
scalar DataCentricNet.host[10].net 	TotalNeighborLqi 	896
scalar DataCentricNet.host[10].net 	AverageNeighborLqi 	128
scalar DataCentricNet.host[10].net 	MaxNeighborLqi 	184
scalar DataCentricNet.host[10].net 	MinNeighborLqi 	1
scalar DataCentricNet.host[10].net 	TEST_LengthLatestInterestArrivalPeriod 	0
scalar DataCentricNet.host[10].net 	ignoreRatio 	0.63793103448276
scalar DataCentricNet.host[11].net 	NumberOfNeighbours 	5
scalar DataCentricNet.host[11].net 	TotalNeighborLqi 	784
scalar DataCentricNet.host[11].net 	AverageNeighborLqi 	156.8
scalar DataCentricNet.host[11].net 	MaxNeighborLqi 	215
scalar DataCentricNet.host[11].net 	MinNeighborLqi 	113
scalar DataCentricNet.host[11].net 	TEST_LengthLatestInterestArrivalPeriod 	0
scalar DataCentricNet.host[11].net 	ignoreRatio 	0.46808510638298
scalar DataCentricNet.host[12].net 	NumberOfNeighbours 	5
scalar DataCentricNet.host[12].net 	TotalNeighborLqi 	644
scalar DataCentricNet.host[12].net 	AverageNeighborLqi 	128.8
scalar DataCentricNet.host[12].net 	MaxNeighborLqi 	215
scalar DataCentricNet.host[12].net 	MinNeighborLqi 	51
scalar DataCentricNet.host[12].net 	TEST_LengthLatestInterestArrivalPeriod 	0
scalar DataCentricNet.host[12].net 	ignoreRatio 	0.5607476635514
scalar DataCentricNet.host[13].net 	NumberOfNeighbours 	3
scalar DataCentricNet.host[13].net 	TotalNeighborLqi 	442
scalar DataCentricNet.host[13].net 	AverageNeighborLqi 	147.33333333333
scalar DataCentricNet.host[13].net 	MaxNeighborLqi 	199
scalar DataCentricNet.host[13].net 	MinNeighborLqi 	100
scalar DataCentricNet.host[13].net 	TEST_LengthLatestInterestArrivalPeriod 	0
scalar DataCentricNet.host[13].net 	ignoreRatio 	0.56880733944954
scalar DataCentricNet.host[14].net 	NumberOfNeighbours 	3
scalar DataCentricNet.host[14].net 	TotalNeighborLqi 	520
scalar DataCentricNet.host[14].net 	AverageNeighborLqi 	173.33333333333
scalar DataCentricNet.host[14].net 	MaxNeighborLqi 	202
scalar DataCentricNet.host[14].net 	MinNeighborLqi 	116
scalar DataCentricNet.host[14].net 	TEST_LengthLatestInterestArrivalPeriod 	0
scalar DataCentricNet.host[14].net 	ignoreRatio 	0.37142857142857
scalar DataCentricNet.host[15].net 	NumberOfNeighbours 	5
scalar DataCentricNet.host[15].net 	TotalNeighborLqi 	507
scalar DataCentricNet.host[15].net 	AverageNeighborLqi 	101.4
scalar DataCentricNet.host[15].net 	MaxNeighborLqi 	197
scalar DataCentricNet.host[15].net 	MinNeighborLqi 	1
scalar DataCentricNet.host[15].net 	TEST_LengthLatestInterestArrivalPeriod 	0
scalar DataCentricNet.host[15].net 	ignoreRatio 	0.52845528455285
scalar DataCentricNet.host[16].net 	NumberOfNeighbours 	4
scalar DataCentricNet.host[16].net 	TotalNeighborLqi 	469
scalar DataCentricNet.host[16].net 	AverageNeighborLqi 	117.25
scalar DataCentricNet.host[16].net 	MaxNeighborLqi 	202
scalar DataCentricNet.host[16].net 	MinNeighborLqi 	1
scalar DataCentricNet.host[16].net 	TEST_LengthLatestInterestArrivalPeriod 	0
scalar DataCentricNet.host[16].net 	ignoreRatio 	0.55357142857143
scalar DataCentricNet.host[17].net 	NumberOfNeighbours 	6
scalar DataCentricNet.host[17].net 	TotalNeighborLqi 	882
scalar DataCentricNet.host[17].net 	AverageNeighborLqi 	147
scalar DataCentricNet.host[17].net 	MaxNeighborLqi 	212
scalar DataCentricNet.host[17].net 	MinNeighborLqi 	0
scalar DataCentricNet.host[17].net 	TEST_LengthLatestInterestArrivalPeriod 	0
scalar DataCentricNet.host[17].net 	ignoreRatio 	0.53472222222222
scalar DataCentricNet.host[18].net 	NumberOfNeighbours 	6
scalar DataCentricNet.host[18].net 	TotalNeighborLqi 	709
scalar DataCentricNet.host[18].net 	AverageNeighborLqi 	118.16666666667
scalar DataCentricNet.host[18].net 	MaxNeighborLqi 	182
scalar DataCentricNet.host[18].net 	MinNeighborLqi 	58
scalar DataCentricNet.host[18].net 	TEST_LengthLatestInterestArrivalPeriod 	0
scalar DataCentricNet.host[18].net 	ignoreRatio 	0.4047619047619
scalar DataCentricNet.host[19].net 	NumberOfNeighbours 	6
scalar DataCentricNet.host[19].net 	TotalNeighborLqi 	807
scalar DataCentricNet.host[19].net 	AverageNeighborLqi 	134.5
scalar DataCentricNet.host[19].net 	MaxNeighborLqi 	194
scalar DataCentricNet.host[19].net 	MinNeighborLqi 	1
scalar DataCentricNet.host[19].net 	TEST_LengthLatestInterestArrivalPeriod 	0
scalar DataCentricNet.host[19].net 	ignoreRatio 	0.64516129032258
scalar DataCentricNet.host[20].net 	NumberOfNeighbours 	5
scalar DataCentricNet.host[20].net 	TotalNeighborLqi 	767
scalar DataCentricNet.host[20].net 	AverageNeighborLqi 	153.4
scalar DataCentricNet.host[20].net 	MaxNeighborLqi 	230
scalar DataCentricNet.host[20].net 	MinNeighborLqi 	58
scalar DataCentricNet.host[20].net 	TEST_LengthLatestInterestArrivalPeriod 	0
scalar DataCentricNet.host[20].net 	ignoreRatio 	0.3030303030303
scalar DataCentricNet.host[21].net 	NumberOfNeighbours 	5
scalar DataCentricNet.host[21].net 	TotalNeighborLqi 	834
scalar DataCentricNet.host[21].net 	AverageNeighborLqi 	166.8
scalar DataCentricNet.host[21].net 	MaxNeighborLqi 	240
scalar DataCentricNet.host[21].net 	MinNeighborLqi 	87
scalar DataCentricNet.host[21].net 	TEST_LengthLatestInterestArrivalPeriod 	0
scalar DataCentricNet.host[21].net 	ignoreRatio 	0.65697674418605
scalar DataCentricNet.host[22].net 	NumberOfNeighbours 	5
scalar DataCentricNet.host[22].net 	TotalNeighborLqi 	757
scalar DataCentricNet.host[22].net 	AverageNeighborLqi 	151.4
scalar DataCentricNet.host[22].net 	MaxNeighborLqi 	217
scalar DataCentricNet.host[22].net 	MinNeighborLqi 	74
scalar DataCentricNet.host[22].net 	TEST_LengthLatestInterestArrivalPeriod 	0
scalar DataCentricNet.host[22].net 	ignoreRatio 	0.54310344827586
scalar DataCentricNet.host[23].net 	NumberOfNeighbours 	8
scalar DataCentricNet.host[23].net 	TotalNeighborLqi 	1019
scalar DataCentricNet.host[23].net 	AverageNeighborLqi 	127.375
scalar DataCentricNet.host[23].net 	MaxNeighborLqi 	189
scalar DataCentricNet.host[23].net 	MinNeighborLqi 	58
scalar DataCentricNet.host[23].net 	TEST_LengthLatestInterestArrivalPeriod 	0
scalar DataCentricNet.host[23].net 	ignoreRatio 	0.63768115942029
scalar DataCentricNet.host[24].net 	NumberOfNeighbours 	7
scalar DataCentricNet.host[24].net 	TotalNeighborLqi 	846
scalar DataCentricNet.host[24].net 	AverageNeighborLqi 	120.85714285714
scalar DataCentricNet.host[24].net 	MaxNeighborLqi 	187
scalar DataCentricNet.host[24].net 	MinNeighborLqi 	21
scalar DataCentricNet.host[24].net 	TEST_LengthLatestInterestArrivalPeriod 	0
scalar DataCentricNet.host[24].net 	ignoreRatio 	0.6283185840708
scalar DataCentricNet.host[25].net 	NumberOfNeighbours 	5
scalar DataCentricNet.host[25].net 	TotalNeighborLqi 	959
scalar DataCentricNet.host[25].net 	AverageNeighborLqi 	191.8
scalar DataCentricNet.host[25].net 	MaxNeighborLqi 	238
scalar DataCentricNet.host[25].net 	MinNeighborLqi 	131
scalar DataCentricNet.host[25].net 	TEST_LengthLatestInterestArrivalPeriod 	0
scalar DataCentricNet.host[25].net 	ignoreRatio 	0.5
scalar DataCentricNet.host[26].net 	NumberOfNeighbours 	7
scalar DataCentricNet.host[26].net 	TotalNeighborLqi 	1104
scalar DataCentricNet.host[26].net 	AverageNeighborLqi 	157.71428571429
scalar DataCentricNet.host[26].net 	MaxNeighborLqi 	231
scalar DataCentricNet.host[26].net 	MinNeighborLqi 	110
scalar DataCentricNet.host[26].net 	TEST_LengthLatestInterestArrivalPeriod 	0
scalar DataCentricNet.host[26].net 	ignoreRatio 	0.5374449339207
scalar DataCentricNet.host[27].net 	NumberOfNeighbours 	8
scalar DataCentricNet.host[27].net 	TotalNeighborLqi 	1045
scalar DataCentricNet.host[27].net 	AverageNeighborLqi 	130.625
scalar DataCentricNet.host[27].net 	MaxNeighborLqi 	233
scalar DataCentricNet.host[27].net 	MinNeighborLqi 	62
scalar DataCentricNet.host[27].net 	TEST_LengthLatestInterestArrivalPeriod 	0
scalar DataCentricNet.host[27].net 	ignoreRatio 	0.49779735682819
scalar DataCentricNet.host[28].net 	NumberOfNeighbours 	7
scalar DataCentricNet.host[28].net 	TotalNeighborLqi 	736
scalar DataCentricNet.host[28].net 	AverageNeighborLqi 	105.14285714286
scalar DataCentricNet.host[28].net 	MaxNeighborLqi 	125
scalar DataCentricNet.host[28].net 	MinNeighborLqi 	36
scalar DataCentricNet.host[28].net 	TEST_LengthLatestInterestArrivalPeriod 	0
scalar DataCentricNet.host[28].net 	ignoreRatio 	0.55645161290323
scalar DataCentricNet.host[29].net 	NumberOfNeighbours 	3
scalar DataCentricNet.host[29].net 	TotalNeighborLqi 	557
scalar DataCentricNet.host[29].net 	AverageNeighborLqi 	185.66666666667
scalar DataCentricNet.host[29].net 	MaxNeighborLqi 	210
scalar DataCentricNet.host[29].net 	MinNeighborLqi 	143
scalar DataCentricNet.host[29].net 	TEST_LengthLatestInterestArrivalPeriod 	0
scalar DataCentricNet.host[29].net 	ignoreRatio 	0.53389830508475
scalar DataCentricNet.host[30].net 	NumberOfNeighbours 	6
scalar DataCentricNet.host[30].net 	TotalNeighborLqi 	873
scalar DataCentricNet.host[30].net 	AverageNeighborLqi 	145.5
scalar DataCentricNet.host[30].net 	MaxNeighborLqi 	182
scalar DataCentricNet.host[30].net 	MinNeighborLqi 	97
scalar DataCentricNet.host[30].net 	TEST_LengthLatestInterestArrivalPeriod 	0
scalar DataCentricNet.host[30].net 	ignoreRatio 	0.44541484716157
scalar DataCentricNet.host[31].net 	NumberOfNeighbours 	4
scalar DataCentricNet.host[31].net 	TotalNeighborLqi 	507
scalar DataCentricNet.host[31].net 	AverageNeighborLqi 	126.75
scalar DataCentricNet.host[31].net 	MaxNeighborLqi 	171
scalar DataCentricNet.host[31].net 	MinNeighborLqi 	108
scalar DataCentricNet.host[31].net 	TEST_LengthLatestInterestArrivalPeriod 	0
scalar DataCentricNet.host[31].net 	ignoreRatio 	0.51914893617021
scalar DataCentricNet.host[32].net 	NumberOfNeighbours 	6
scalar DataCentricNet.host[32].net 	TotalNeighborLqi 	851
scalar DataCentricNet.host[32].net 	AverageNeighborLqi 	141.83333333333
scalar DataCentricNet.host[32].net 	MaxNeighborLqi 	217
scalar DataCentricNet.host[32].net 	MinNeighborLqi 	23
scalar DataCentricNet.host[32].net 	TEST_LengthLatestInterestArrivalPeriod 	0
scalar DataCentricNet.host[32].net 	ignoreRatio 	0.71794871794872
scalar DataCentricNet.host[33].net 	NumberOfNeighbours 	7
scalar DataCentricNet.host[33].net 	TotalNeighborLqi 	898
scalar DataCentricNet.host[33].net 	AverageNeighborLqi 	128.28571428571
scalar DataCentricNet.host[33].net 	MaxNeighborLqi 	207
scalar DataCentricNet.host[33].net 	MinNeighborLqi 	23
scalar DataCentricNet.host[33].net 	TEST_LengthLatestInterestArrivalPeriod 	0
scalar DataCentricNet.host[33].net 	ignoreRatio 	0.64171122994652
scalar DataCentricNet.host[34].net 	NumberOfNeighbours 	6
scalar DataCentricNet.host[34].net 	TotalNeighborLqi 	841
scalar DataCentricNet.host[34].net 	AverageNeighborLqi 	140.16666666667
scalar DataCentricNet.host[34].net 	MaxNeighborLqi 	187
scalar DataCentricNet.host[34].net 	MinNeighborLqi 	97
scalar DataCentricNet.host[34].net 	TEST_LengthLatestInterestArrivalPeriod 	0
scalar DataCentricNet.host[34].net 	ignoreRatio 	0.57522123893805
scalar DataCentricNet.host[35].net 	NumberOfNeighbours 	4
scalar DataCentricNet.host[35].net 	TotalNeighborLqi 	459
scalar DataCentricNet.host[35].net 	AverageNeighborLqi 	114.75
scalar DataCentricNet.host[35].net 	MaxNeighborLqi 	202
scalar DataCentricNet.host[35].net 	MinNeighborLqi 	1
scalar DataCentricNet.host[35].net 	TEST_LengthLatestInterestArrivalPeriod 	0
scalar DataCentricNet.host[35].net 	ignoreRatio 	0.5982905982906
scalar DataCentricNet.host[36].net 	NumberOfNeighbours 	6
scalar DataCentricNet.host[36].net 	TotalNeighborLqi 	941
scalar DataCentricNet.host[36].net 	AverageNeighborLqi 	156.83333333333
scalar DataCentricNet.host[36].net 	MaxNeighborLqi 	192
scalar DataCentricNet.host[36].net 	MinNeighborLqi 	92
scalar DataCentricNet.host[36].net 	TEST_LengthLatestInterestArrivalPeriod 	0
scalar DataCentricNet.host[36].net 	ignoreRatio 	0.64055299539171
scalar DataCentricNet.host[37].net 	NumberOfNeighbours 	8
scalar DataCentricNet.host[37].net 	TotalNeighborLqi 	1203
scalar DataCentricNet.host[37].net 	AverageNeighborLqi 	150.375
scalar DataCentricNet.host[37].net 	MaxNeighborLqi 	202
scalar DataCentricNet.host[37].net 	MinNeighborLqi 	74
scalar DataCentricNet.host[37].net 	TEST_LengthLatestInterestArrivalPeriod 	0
scalar DataCentricNet.host[37].net 	ignoreRatio 	0.43171806167401
scalar DataCentricNet.host[38].net 	NumberOfNeighbours 	6
scalar DataCentricNet.host[38].net 	TotalNeighborLqi 	887
scalar DataCentricNet.host[38].net 	AverageNeighborLqi 	147.83333333333
scalar DataCentricNet.host[38].net 	MaxNeighborLqi 	233
scalar DataCentricNet.host[38].net 	MinNeighborLqi 	69
scalar DataCentricNet.host[38].net 	TEST_LengthLatestInterestArrivalPeriod 	0
scalar DataCentricNet.host[38].net 	ignoreRatio 	0.66442953020134
scalar DataCentricNet.host[39].net 	NumberOfNeighbours 	8
scalar DataCentricNet.host[39].net 	TotalNeighborLqi 	1117
scalar DataCentricNet.host[39].net 	AverageNeighborLqi 	139.625
scalar DataCentricNet.host[39].net 	MaxNeighborLqi 	220
scalar DataCentricNet.host[39].net 	MinNeighborLqi 	69
scalar DataCentricNet.host[39].net 	TEST_LengthLatestInterestArrivalPeriod 	0
scalar DataCentricNet.host[39].net 	ignoreRatio 	0.64220183486239
scalar DataCentricNet.host[40].net 	NumberOfNeighbours 	4
scalar DataCentricNet.host[40].net 	TotalNeighborLqi 	469
scalar DataCentricNet.host[40].net 	AverageNeighborLqi 	117.25
scalar DataCentricNet.host[40].net 	MaxNeighborLqi 	159
scalar DataCentricNet.host[40].net 	MinNeighborLqi 	80
scalar DataCentricNet.host[40].net 	TEST_LengthLatestInterestArrivalPeriod 	0
scalar DataCentricNet.host[40].net 	ignoreRatio 	0.6448087431694
scalar DataCentricNet.host[41].net 	NumberOfNeighbours 	9
scalar DataCentricNet.host[41].net 	TotalNeighborLqi 	1081
scalar DataCentricNet.host[41].net 	AverageNeighborLqi 	120.11111111111
scalar DataCentricNet.host[41].net 	MaxNeighborLqi 	192
scalar DataCentricNet.host[41].net 	MinNeighborLqi 	21
scalar DataCentricNet.host[41].net 	TEST_LengthLatestInterestArrivalPeriod 	0
scalar DataCentricNet.host[41].net 	ignoreRatio 	0.53191489361702
scalar DataCentricNet.host[42].net 	NumberOfNeighbours 	3
scalar DataCentricNet.host[42].net 	TotalNeighborLqi 	593
scalar DataCentricNet.host[42].net 	AverageNeighborLqi 	197.66666666667
scalar DataCentricNet.host[42].net 	MaxNeighborLqi 	217
scalar DataCentricNet.host[42].net 	MinNeighborLqi 	166
scalar DataCentricNet.host[42].net 	TEST_LengthLatestInterestArrivalPeriod 	0
scalar DataCentricNet.host[42].net 	ignoreRatio 	0.5
scalar DataCentricNet.host[43].net 	NumberOfNeighbours 	5
scalar DataCentricNet.host[43].net 	TotalNeighborLqi 	762
scalar DataCentricNet.host[43].net 	AverageNeighborLqi 	152.4
scalar DataCentricNet.host[43].net 	MaxNeighborLqi 	194
scalar DataCentricNet.host[43].net 	MinNeighborLqi 	100
scalar DataCentricNet.host[43].net 	TEST_LengthLatestInterestArrivalPeriod 	0
scalar DataCentricNet.host[43].net 	ignoreRatio 	0.62576687116564
scalar DataCentricNet.host[44].net 	NumberOfNeighbours 	6
scalar DataCentricNet.host[44].net 	TotalNeighborLqi 	860
scalar DataCentricNet.host[44].net 	AverageNeighborLqi 	143.33333333333
scalar DataCentricNet.host[44].net 	MaxNeighborLqi 	230
scalar DataCentricNet.host[44].net 	MinNeighborLqi 	74
scalar DataCentricNet.host[44].net 	TEST_LengthLatestInterestArrivalPeriod 	0
scalar DataCentricNet.host[44].net 	ignoreRatio 	0.55
scalar DataCentricNet.host[45].net 	NumberOfNeighbours 	6
scalar DataCentricNet.host[45].net 	TotalNeighborLqi 	786
scalar DataCentricNet.host[45].net 	AverageNeighborLqi 	131
scalar DataCentricNet.host[45].net 	MaxNeighborLqi 	192
scalar DataCentricNet.host[45].net 	MinNeighborLqi 	67
scalar DataCentricNet.host[45].net 	TEST_LengthLatestInterestArrivalPeriod 	0
scalar DataCentricNet.host[45].net 	ignoreRatio 	0.59562841530055
scalar DataCentricNet.host[46].net 	NumberOfNeighbours 	8
scalar DataCentricNet.host[46].net 	TotalNeighborLqi 	1136
scalar DataCentricNet.host[46].net 	AverageNeighborLqi 	142
scalar DataCentricNet.host[46].net 	MaxNeighborLqi 	210
scalar DataCentricNet.host[46].net 	MinNeighborLqi 	95
scalar DataCentricNet.host[46].net 	TEST_LengthLatestInterestArrivalPeriod 	0
scalar DataCentricNet.host[46].net 	ignoreRatio 	0.59174311926606
scalar DataCentricNet.host[47].net 	NumberOfNeighbours 	4
scalar DataCentricNet.host[47].net 	TotalNeighborLqi 	670
scalar DataCentricNet.host[47].net 	AverageNeighborLqi 	167.5
scalar DataCentricNet.host[47].net 	MaxNeighborLqi 	192
scalar DataCentricNet.host[47].net 	MinNeighborLqi 	148
scalar DataCentricNet.host[47].net 	TEST_LengthLatestInterestArrivalPeriod 	0
scalar DataCentricNet.host[47].net 	ignoreRatio 	0.61764705882353
scalar DataCentricNet.host[48].net 	NumberOfNeighbours 	6
scalar DataCentricNet.host[48].net 	TotalNeighborLqi 	759
scalar DataCentricNet.host[48].net 	AverageNeighborLqi 	126.5
scalar DataCentricNet.host[48].net 	MaxNeighborLqi 	204
scalar DataCentricNet.host[48].net 	MinNeighborLqi 	77
scalar DataCentricNet.host[48].net 	TEST_LengthLatestInterestArrivalPeriod 	0
scalar DataCentricNet.host[48].net 	ignoreRatio 	0.49779735682819
scalar DataCentricNet.host[49].net 	NumberOfNeighbours 	4
scalar DataCentricNet.host[49].net 	TotalNeighborLqi 	458
scalar DataCentricNet.host[49].net 	AverageNeighborLqi 	114.5
scalar DataCentricNet.host[49].net 	MaxNeighborLqi 	189
scalar DataCentricNet.host[49].net 	MinNeighborLqi 	64
scalar DataCentricNet.host[49].net 	TEST_LengthLatestInterestArrivalPeriod 	0
scalar DataCentricNet.host[49].net 	ignoreRatio 	0.70454545454545
scalar DataCentricNet.host[50].net 	NumberOfNeighbours 	6
scalar DataCentricNet.host[50].net 	TotalNeighborLqi 	621
scalar DataCentricNet.host[50].net 	AverageNeighborLqi 	103.5
scalar DataCentricNet.host[50].net 	MaxNeighborLqi 	171
scalar DataCentricNet.host[50].net 	MinNeighborLqi 	36
scalar DataCentricNet.host[50].net 	TEST_LengthLatestInterestArrivalPeriod 	0
scalar DataCentricNet.host[50].net 	ignoreRatio 	0.43824701195219
scalar DataCentricNet.host[51].net 	NumberOfNeighbours 	7
scalar DataCentricNet.host[51].net 	TotalNeighborLqi 	1172
scalar DataCentricNet.host[51].net 	AverageNeighborLqi 	167.42857142857
scalar DataCentricNet.host[51].net 	MaxNeighborLqi 	207
scalar DataCentricNet.host[51].net 	MinNeighborLqi 	125
scalar DataCentricNet.host[51].net 	TEST_LengthLatestInterestArrivalPeriod 	0
scalar DataCentricNet.host[51].net 	ignoreRatio 	0.64125560538117
scalar DataCentricNet.host[52].net 	NumberOfNeighbours 	5
scalar DataCentricNet.host[52].net 	TotalNeighborLqi 	667
scalar DataCentricNet.host[52].net 	AverageNeighborLqi 	133.4
scalar DataCentricNet.host[52].net 	MaxNeighborLqi 	222
scalar DataCentricNet.host[52].net 	MinNeighborLqi 	69
scalar DataCentricNet.host[52].net 	TEST_LengthLatestInterestArrivalPeriod 	0
scalar DataCentricNet.host[52].net 	ignoreRatio 	0.62179487179487
scalar DataCentricNet.host[53].net 	NumberOfNeighbours 	5
scalar DataCentricNet.host[53].net 	TotalNeighborLqi 	795
scalar DataCentricNet.host[53].net 	AverageNeighborLqi 	159
scalar DataCentricNet.host[53].net 	MaxNeighborLqi 	207
scalar DataCentricNet.host[53].net 	MinNeighborLqi 	125
scalar DataCentricNet.host[53].net 	TEST_LengthLatestInterestArrivalPeriod 	0
scalar DataCentricNet.host[53].net 	ignoreRatio 	0.58757062146893
scalar DataCentricNet.host[54].net 	NumberOfNeighbours 	9
scalar DataCentricNet.host[54].net 	TotalNeighborLqi 	1159
scalar DataCentricNet.host[54].net 	AverageNeighborLqi 	128.77777777778
scalar DataCentricNet.host[54].net 	MaxNeighborLqi 	187
scalar DataCentricNet.host[54].net 	MinNeighborLqi 	44
scalar DataCentricNet.host[54].net 	TEST_LengthLatestInterestArrivalPeriod 	0
scalar DataCentricNet.host[54].net 	ignoreRatio 	0.48484848484848
scalar DataCentricNet.host[55].net 	NumberOfNeighbours 	8
scalar DataCentricNet.host[55].net 	TotalNeighborLqi 	1034
scalar DataCentricNet.host[55].net 	AverageNeighborLqi 	129.25
scalar DataCentricNet.host[55].net 	MaxNeighborLqi 	192
scalar DataCentricNet.host[55].net 	MinNeighborLqi 	11
scalar DataCentricNet.host[55].net 	TEST_LengthLatestInterestArrivalPeriod 	0
scalar DataCentricNet.host[55].net 	ignoreRatio 	0.61111111111111
scalar DataCentricNet.host[56].net 	NumberOfNeighbours 	5
scalar DataCentricNet.host[56].net 	TotalNeighborLqi 	902
scalar DataCentricNet.host[56].net 	AverageNeighborLqi 	180.4
scalar DataCentricNet.host[56].net 	MaxNeighborLqi 	250
scalar DataCentricNet.host[56].net 	MinNeighborLqi 	102
scalar DataCentricNet.host[56].net 	TEST_LengthLatestInterestArrivalPeriod 	0
scalar DataCentricNet.host[56].net 	ignoreRatio 	0.63636363636364
scalar DataCentricNet.host[57].net 	NumberOfNeighbours 	3
scalar DataCentricNet.host[57].net 	TotalNeighborLqi 	675
scalar DataCentricNet.host[57].net 	AverageNeighborLqi 	225
scalar DataCentricNet.host[57].net 	MaxNeighborLqi 	248
scalar DataCentricNet.host[57].net 	MinNeighborLqi 	197
scalar DataCentricNet.host[57].net 	TEST_LengthLatestInterestArrivalPeriod 	0
scalar DataCentricNet.host[57].net 	ignoreRatio 	0.55555555555556
scalar DataCentricNet.host[58].net 	NumberOfNeighbours 	5
scalar DataCentricNet.host[58].net 	TotalNeighborLqi 	702
scalar DataCentricNet.host[58].net 	AverageNeighborLqi 	140.4
scalar DataCentricNet.host[58].net 	MaxNeighborLqi 	171
scalar DataCentricNet.host[58].net 	MinNeighborLqi 	97
scalar DataCentricNet.host[58].net 	TEST_LengthLatestInterestArrivalPeriod 	0
scalar DataCentricNet.host[58].net 	ignoreRatio 	0.58823529411765
scalar DataCentricNet.host[59].net 	NumberOfNeighbours 	6
scalar DataCentricNet.host[59].net 	TotalNeighborLqi 	842
scalar DataCentricNet.host[59].net 	AverageNeighborLqi 	140.33333333333
scalar DataCentricNet.host[59].net 	MaxNeighborLqi 	202
scalar DataCentricNet.host[59].net 	MinNeighborLqi 	11
scalar DataCentricNet.host[59].net 	TEST_LengthLatestInterestArrivalPeriod 	0
scalar DataCentricNet.host[59].net 	ignoreRatio 	0.64102564102564
scalar DataCentricNet.host[60].net 	NumberOfNeighbours 	9
scalar DataCentricNet.host[60].net 	TotalNeighborLqi 	1282
scalar DataCentricNet.host[60].net 	AverageNeighborLqi 	142.44444444444
scalar DataCentricNet.host[60].net 	MaxNeighborLqi 	235
scalar DataCentricNet.host[60].net 	MinNeighborLqi 	62
scalar DataCentricNet.host[60].net 	TEST_LengthLatestInterestArrivalPeriod 	0
scalar DataCentricNet.host[60].net 	ignoreRatio 	0.55309734513274
scalar DataCentricNet.host[61].net 	NumberOfNeighbours 	4
scalar DataCentricNet.host[61].net 	TotalNeighborLqi 	550
scalar DataCentricNet.host[61].net 	AverageNeighborLqi 	137.5
scalar DataCentricNet.host[61].net 	MaxNeighborLqi 	207
scalar DataCentricNet.host[61].net 	MinNeighborLqi 	64
scalar DataCentricNet.host[61].net 	TEST_LengthLatestInterestArrivalPeriod 	0
scalar DataCentricNet.host[61].net 	ignoreRatio 	0.38461538461538
scalar DataCentricNet.host[62].net 	NumberOfNeighbours 	8
scalar DataCentricNet.host[62].net 	TotalNeighborLqi 	1106
scalar DataCentricNet.host[62].net 	AverageNeighborLqi 	138.25
scalar DataCentricNet.host[62].net 	MaxNeighborLqi 	215
scalar DataCentricNet.host[62].net 	MinNeighborLqi 	69
scalar DataCentricNet.host[62].net 	TEST_LengthLatestInterestArrivalPeriod 	0
scalar DataCentricNet.host[62].net 	ignoreRatio 	0.52678571428571
scalar DataCentricNet.host[63].net 	NumberOfNeighbours 	6
scalar DataCentricNet.host[63].net 	TotalNeighborLqi 	767
scalar DataCentricNet.host[63].net 	AverageNeighborLqi 	127.83333333333
scalar DataCentricNet.host[63].net 	MaxNeighborLqi 	189
scalar DataCentricNet.host[63].net 	MinNeighborLqi 	92
scalar DataCentricNet.host[63].net 	TEST_LengthLatestInterestArrivalPeriod 	0
scalar DataCentricNet.host[63].net 	ignoreRatio 	0.60995850622407
scalar DataCentricNet.host[64].net 	NumberOfNeighbours 	6
scalar DataCentricNet.host[64].net 	TotalNeighborLqi 	833
scalar DataCentricNet.host[64].net 	AverageNeighborLqi 	138.83333333333
scalar DataCentricNet.host[64].net 	MaxNeighborLqi 	192
scalar DataCentricNet.host[64].net 	MinNeighborLqi 	80
scalar DataCentricNet.host[64].net 	TEST_LengthLatestInterestArrivalPeriod 	0
scalar DataCentricNet.host[64].net 	ignoreRatio 	0.65714285714286
scalar DataCentricNet.host[65].net 	NumberOfNeighbours 	8
scalar DataCentricNet.host[65].net 	TotalNeighborLqi 	1052
scalar DataCentricNet.host[65].net 	AverageNeighborLqi 	131.5
scalar DataCentricNet.host[65].net 	MaxNeighborLqi 	220
scalar DataCentricNet.host[65].net 	MinNeighborLqi 	1
scalar DataCentricNet.host[65].net 	TEST_LengthLatestInterestArrivalPeriod 	0
scalar DataCentricNet.host[65].net 	ignoreRatio 	0.54504504504505
scalar DataCentricNet.dataCentricNetworkMan 	DataArrivals 	156
scalar DataCentricNet.dataCentricNetworkMan 	PercentageArrivals 	100
scalar DataCentricNet.dataCentricNetworkMan 	DataFailures 	0
scalar DataCentricNet.dataCentricNetworkMan 	PercentageFailures 	0
scalar DataCentricNet.dataCentricNetworkMan 	MeanE2EDelay 	0.01669844374509
scalar DataCentricNet.dataCentricNetworkMan 	StdDevE2EDelay 	0.010287584572984
scalar DataCentricNet.dataCentricNetworkMan 	MaxE2EDelay 	0.059680883441
scalar DataCentricNet.dataCentricNetworkMan 	MinE2EDelay 	0.002810894531
scalar DataCentricNet.dataCentricNetworkMan 	numControlPackets 	760
scalar DataCentricNet.dataCentricNetworkMan 	MeanBPS 	0
scalar DataCentricNet.dataCentricNetworkMan 	StdDevBPS 	-1.#IND
scalar DataCentricNet.dataCentricNetworkMan 	MaxBPS 	0
scalar DataCentricNet.dataCentricNetworkMan 	MinBPS 	0
