version 2
run DataCentric_Experiment_1-55-20121129-16:24:25-3220
attr configname DataCentric_Experiment_1
attr datetime 20121129-16:24:25
attr experiment DataCentric_Experiment_1
attr inifile DataCentric_2.ini
attr iterationvars $numNodes=105
attr iterationvars2 "$numNodes=105, $repetition=0"
attr measurement $numNodes=105
attr network DataCentricNet
attr numNodes 105
attr processid 3220
attr repetition 0
attr replication #0
attr resultdir results
attr runnumber 55
attr seedset 55

scalar . 	numNodes 	105
scalar DataCentricNet.host[0].net 	NumberOfNeighbours 	10
scalar DataCentricNet.host[0].net 	TotalNeighborLqi 	969
scalar DataCentricNet.host[0].net 	AverageNeighborLqi 	96.9
scalar DataCentricNet.host[0].net 	MaxNeighborLqi 	153
scalar DataCentricNet.host[0].net 	MinNeighborLqi 	0
scalar DataCentricNet.host[0].net 	TEST_LengthLatestInterestArrivalPeriod 	0
scalar DataCentricNet.host[0].net 	ignoreRatio 	0.52040816326531
scalar DataCentricNet.host[1].net 	NumberOfNeighbours 	6
scalar DataCentricNet.host[1].net 	TotalNeighborLqi 	630
scalar DataCentricNet.host[1].net 	AverageNeighborLqi 	105
scalar DataCentricNet.host[1].net 	MaxNeighborLqi 	167
scalar DataCentricNet.host[1].net 	MinNeighborLqi 	0
scalar DataCentricNet.host[1].net 	TEST_LengthLatestInterestArrivalPeriod 	0
scalar DataCentricNet.host[1].net 	ignoreRatio 	0.74299065420561
scalar DataCentricNet.host[2].net 	NumberOfNeighbours 	9
scalar DataCentricNet.host[2].net 	TotalNeighborLqi 	1080
scalar DataCentricNet.host[2].net 	AverageNeighborLqi 	120
scalar DataCentricNet.host[2].net 	MaxNeighborLqi 	166
scalar DataCentricNet.host[2].net 	MinNeighborLqi 	0
scalar DataCentricNet.host[2].net 	TEST_LengthLatestInterestArrivalPeriod 	0
scalar DataCentricNet.host[2].net 	ignoreRatio 	0.51764705882353
scalar DataCentricNet.host[3].net 	NumberOfNeighbours 	10
scalar DataCentricNet.host[3].net 	TotalNeighborLqi 	997
scalar DataCentricNet.host[3].net 	AverageNeighborLqi 	99.7
scalar DataCentricNet.host[3].net 	MaxNeighborLqi 	183
scalar DataCentricNet.host[3].net 	MinNeighborLqi 	1
scalar DataCentricNet.host[3].net 	TEST_LengthLatestInterestArrivalPeriod 	0
scalar DataCentricNet.host[3].net 	ignoreRatio 	0.47297297297297
scalar DataCentricNet.host[4].net 	NumberOfNeighbours 	3
scalar DataCentricNet.host[4].net 	TotalNeighborLqi 	347
scalar DataCentricNet.host[4].net 	AverageNeighborLqi 	115.66666666667
scalar DataCentricNet.host[4].net 	MaxNeighborLqi 	156
scalar DataCentricNet.host[4].net 	MinNeighborLqi 	58
scalar DataCentricNet.host[4].net 	TEST_LengthLatestInterestArrivalPeriod 	0
scalar DataCentricNet.host[4].net 	ignoreRatio 	0.48387096774194
scalar DataCentricNet.host[5].net 	NumberOfNeighbours 	5
scalar DataCentricNet.host[5].net 	TotalNeighborLqi 	391
scalar DataCentricNet.host[5].net 	AverageNeighborLqi 	78.2
scalar DataCentricNet.host[5].net 	MaxNeighborLqi 	143
scalar DataCentricNet.host[5].net 	MinNeighborLqi 	23
scalar DataCentricNet.host[5].net 	TEST_LengthLatestInterestArrivalPeriod 	0
scalar DataCentricNet.host[5].net 	ignoreRatio 	0.375
scalar DataCentricNet.host[6].net 	NumberOfNeighbours 	3
scalar DataCentricNet.host[6].net 	TotalNeighborLqi 	363
scalar DataCentricNet.host[6].net 	AverageNeighborLqi 	121
scalar DataCentricNet.host[6].net 	MaxNeighborLqi 	159
scalar DataCentricNet.host[6].net 	MinNeighborLqi 	58
scalar DataCentricNet.host[6].net 	TEST_LengthLatestInterestArrivalPeriod 	0
scalar DataCentricNet.host[6].net 	ignoreRatio 	0.63636363636364
scalar DataCentricNet.host[7].net 	NumberOfNeighbours 	5
scalar DataCentricNet.host[7].net 	TotalNeighborLqi 	518
scalar DataCentricNet.host[7].net 	AverageNeighborLqi 	103.6
scalar DataCentricNet.host[7].net 	MaxNeighborLqi 	179
scalar DataCentricNet.host[7].net 	MinNeighborLqi 	0
scalar DataCentricNet.host[7].net 	TEST_LengthLatestInterestArrivalPeriod 	0
scalar DataCentricNet.host[7].net 	ignoreRatio 	0.59803921568627
scalar DataCentricNet.host[8].net 	NumberOfNeighbours 	3
scalar DataCentricNet.host[8].net 	TotalNeighborLqi 	317
scalar DataCentricNet.host[8].net 	AverageNeighborLqi 	105.66666666667
scalar DataCentricNet.host[8].net 	MaxNeighborLqi 	136
scalar DataCentricNet.host[8].net 	MinNeighborLqi 	58
scalar DataCentricNet.host[8].net 	TEST_LengthLatestInterestArrivalPeriod 	0
scalar DataCentricNet.host[8].net 	ignoreRatio 	0.63414634146341
scalar DataCentricNet.host[9].net 	NumberOfNeighbours 	6
scalar DataCentricNet.host[9].net 	TotalNeighborLqi 	662
scalar DataCentricNet.host[9].net 	AverageNeighborLqi 	110.33333333333
scalar DataCentricNet.host[9].net 	MaxNeighborLqi 	146
scalar DataCentricNet.host[9].net 	MinNeighborLqi 	58
scalar DataCentricNet.host[9].net 	TEST_LengthLatestInterestArrivalPeriod 	0
scalar DataCentricNet.host[9].net 	ignoreRatio 	0.6198347107438
scalar DataCentricNet.host[10].net 	NumberOfNeighbours 	3
scalar DataCentricNet.host[10].net 	TotalNeighborLqi 	250
scalar DataCentricNet.host[10].net 	AverageNeighborLqi 	83.333333333333
scalar DataCentricNet.host[10].net 	MaxNeighborLqi 	133
scalar DataCentricNet.host[10].net 	MinNeighborLqi 	58
scalar DataCentricNet.host[10].net 	TEST_LengthLatestInterestArrivalPeriod 	0
scalar DataCentricNet.host[10].net 	ignoreRatio 	0.61068702290076
scalar DataCentricNet.host[11].net 	NumberOfNeighbours 	6
scalar DataCentricNet.host[11].net 	TotalNeighborLqi 	760
scalar DataCentricNet.host[11].net 	AverageNeighborLqi 	126.66666666667
scalar DataCentricNet.host[11].net 	MaxNeighborLqi 	161
scalar DataCentricNet.host[11].net 	MinNeighborLqi 	80
scalar DataCentricNet.host[11].net 	TEST_LengthLatestInterestArrivalPeriod 	0
scalar DataCentricNet.host[11].net 	ignoreRatio 	0.46666666666667
scalar DataCentricNet.host[12].net 	NumberOfNeighbours 	4
scalar DataCentricNet.host[12].net 	TotalNeighborLqi 	330
scalar DataCentricNet.host[12].net 	AverageNeighborLqi 	82.5
scalar DataCentricNet.host[12].net 	MaxNeighborLqi 	120
scalar DataCentricNet.host[12].net 	MinNeighborLqi 	39
scalar DataCentricNet.host[12].net 	TEST_LengthLatestInterestArrivalPeriod 	0
scalar DataCentricNet.host[12].net 	ignoreRatio 	0.54347826086957
scalar DataCentricNet.host[13].net 	NumberOfNeighbours 	4
scalar DataCentricNet.host[13].net 	TotalNeighborLqi 	199
scalar DataCentricNet.host[13].net 	AverageNeighborLqi 	49.75
scalar DataCentricNet.host[13].net 	MaxNeighborLqi 	82
scalar DataCentricNet.host[13].net 	MinNeighborLqi 	13
scalar DataCentricNet.host[13].net 	TEST_LengthLatestInterestArrivalPeriod 	0
scalar DataCentricNet.host[13].net 	ignoreRatio 	0.63414634146341
scalar DataCentricNet.host[14].net 	NumberOfNeighbours 	11
scalar DataCentricNet.host[14].net 	TotalNeighborLqi 	1203
scalar DataCentricNet.host[14].net 	AverageNeighborLqi 	109.36363636364
scalar DataCentricNet.host[14].net 	MaxNeighborLqi 	169
scalar DataCentricNet.host[14].net 	MinNeighborLqi 	1
scalar DataCentricNet.host[14].net 	TEST_LengthLatestInterestArrivalPeriod 	0
scalar DataCentricNet.host[14].net 	ignoreRatio 	0.36734693877551
scalar DataCentricNet.host[15].net 	NumberOfNeighbours 	10
scalar DataCentricNet.host[15].net 	TotalNeighborLqi 	1144
scalar DataCentricNet.host[15].net 	AverageNeighborLqi 	114.4
scalar DataCentricNet.host[15].net 	MaxNeighborLqi 	156
scalar DataCentricNet.host[15].net 	MinNeighborLqi 	41
scalar DataCentricNet.host[15].net 	TEST_LengthLatestInterestArrivalPeriod 	0
scalar DataCentricNet.host[15].net 	ignoreRatio 	0.56746031746032
scalar DataCentricNet.host[16].net 	NumberOfNeighbours 	6
scalar DataCentricNet.host[16].net 	TotalNeighborLqi 	640
scalar DataCentricNet.host[16].net 	AverageNeighborLqi 	106.66666666667
scalar DataCentricNet.host[16].net 	MaxNeighborLqi 	148
scalar DataCentricNet.host[16].net 	MinNeighborLqi 	85
scalar DataCentricNet.host[16].net 	TEST_LengthLatestInterestArrivalPeriod 	0
scalar DataCentricNet.host[16].net 	ignoreRatio 	0.69444444444444
scalar DataCentricNet.host[17].net 	NumberOfNeighbours 	8
scalar DataCentricNet.host[17].net 	TotalNeighborLqi 	901
scalar DataCentricNet.host[17].net 	AverageNeighborLqi 	112.625
scalar DataCentricNet.host[17].net 	MaxNeighborLqi 	159
scalar DataCentricNet.host[17].net 	MinNeighborLqi 	58
scalar DataCentricNet.host[17].net 	TEST_LengthLatestInterestArrivalPeriod 	0
scalar DataCentricNet.host[17].net 	ignoreRatio 	0.375
scalar DataCentricNet.host[18].net 	NumberOfNeighbours 	11
scalar DataCentricNet.host[18].net 	TotalNeighborLqi 	1288
scalar DataCentricNet.host[18].net 	AverageNeighborLqi 	117.09090909091
scalar DataCentricNet.host[18].net 	MaxNeighborLqi 	169
scalar DataCentricNet.host[18].net 	MinNeighborLqi 	29
scalar DataCentricNet.host[18].net 	TEST_LengthLatestInterestArrivalPeriod 	0
scalar DataCentricNet.host[18].net 	ignoreRatio 	0.23333333333333
scalar DataCentricNet.host[19].net 	NumberOfNeighbours 	7
scalar DataCentricNet.host[19].net 	TotalNeighborLqi 	680
scalar DataCentricNet.host[19].net 	AverageNeighborLqi 	97.142857142857
scalar DataCentricNet.host[19].net 	MaxNeighborLqi 	156
scalar DataCentricNet.host[19].net 	MinNeighborLqi 	1
scalar DataCentricNet.host[19].net 	TEST_LengthLatestInterestArrivalPeriod 	0
scalar DataCentricNet.host[19].net 	ignoreRatio 	0.59183673469388
scalar DataCentricNet.host[20].net 	NumberOfNeighbours 	13
scalar DataCentricNet.host[20].net 	TotalNeighborLqi 	1403
scalar DataCentricNet.host[20].net 	AverageNeighborLqi 	107.92307692308
scalar DataCentricNet.host[20].net 	MaxNeighborLqi 	164
scalar DataCentricNet.host[20].net 	MinNeighborLqi 	3
scalar DataCentricNet.host[20].net 	TEST_LengthLatestInterestArrivalPeriod 	0
scalar DataCentricNet.host[20].net 	ignoreRatio 	0.545
scalar DataCentricNet.host[21].net 	NumberOfNeighbours 	4
scalar DataCentricNet.host[21].net 	TotalNeighborLqi 	352
scalar DataCentricNet.host[21].net 	AverageNeighborLqi 	88
scalar DataCentricNet.host[21].net 	MaxNeighborLqi 	148
scalar DataCentricNet.host[21].net 	MinNeighborLqi 	1
scalar DataCentricNet.host[21].net 	TEST_LengthLatestInterestArrivalPeriod 	0
scalar DataCentricNet.host[21].net 	ignoreRatio 	0.73417721518987
scalar DataCentricNet.host[22].net 	NumberOfNeighbours 	10
scalar DataCentricNet.host[22].net 	TotalNeighborLqi 	1094
scalar DataCentricNet.host[22].net 	AverageNeighborLqi 	109.4
scalar DataCentricNet.host[22].net 	MaxNeighborLqi 	169
scalar DataCentricNet.host[22].net 	MinNeighborLqi 	44
scalar DataCentricNet.host[22].net 	TEST_LengthLatestInterestArrivalPeriod 	0
scalar DataCentricNet.host[22].net 	ignoreRatio 	0.51322751322751
scalar DataCentricNet.host[23].net 	NumberOfNeighbours 	9
scalar DataCentricNet.host[23].net 	TotalNeighborLqi 	963
scalar DataCentricNet.host[23].net 	AverageNeighborLqi 	107
scalar DataCentricNet.host[23].net 	MaxNeighborLqi 	161
scalar DataCentricNet.host[23].net 	MinNeighborLqi 	1
scalar DataCentricNet.host[23].net 	TEST_LengthLatestInterestArrivalPeriod 	0
scalar DataCentricNet.host[23].net 	ignoreRatio 	0.53181818181818
scalar DataCentricNet.host[24].net 	NumberOfNeighbours 	7
scalar DataCentricNet.host[24].net 	TotalNeighborLqi 	932
scalar DataCentricNet.host[24].net 	AverageNeighborLqi 	133.14285714286
scalar DataCentricNet.host[24].net 	MaxNeighborLqi 	159
scalar DataCentricNet.host[24].net 	MinNeighborLqi 	113
scalar DataCentricNet.host[24].net 	TEST_LengthLatestInterestArrivalPeriod 	0
scalar DataCentricNet.host[24].net 	ignoreRatio 	0.69270833333333
scalar DataCentricNet.host[25].net 	NumberOfNeighbours 	9
scalar DataCentricNet.host[25].net 	TotalNeighborLqi 	860
scalar DataCentricNet.host[25].net 	AverageNeighborLqi 	95.555555555556
scalar DataCentricNet.host[25].net 	MaxNeighborLqi 	161
scalar DataCentricNet.host[25].net 	MinNeighborLqi 	1
scalar DataCentricNet.host[25].net 	TEST_LengthLatestInterestArrivalPeriod 	0
scalar DataCentricNet.host[25].net 	ignoreRatio 	0.58522727272727
scalar DataCentricNet.host[26].net 	NumberOfNeighbours 	5
scalar DataCentricNet.host[26].net 	TotalNeighborLqi 	511
scalar DataCentricNet.host[26].net 	AverageNeighborLqi 	102.2
scalar DataCentricNet.host[26].net 	MaxNeighborLqi 	153
scalar DataCentricNet.host[26].net 	MinNeighborLqi 	51
scalar DataCentricNet.host[26].net 	TEST_LengthLatestInterestArrivalPeriod 	0
scalar DataCentricNet.host[26].net 	ignoreRatio 	0.70229007633588
scalar DataCentricNet.host[27].net 	NumberOfNeighbours 	10
scalar DataCentricNet.host[27].net 	TotalNeighborLqi 	933
scalar DataCentricNet.host[27].net 	AverageNeighborLqi 	93.3
scalar DataCentricNet.host[27].net 	MaxNeighborLqi 	159
scalar DataCentricNet.host[27].net 	MinNeighborLqi 	3
scalar DataCentricNet.host[27].net 	TEST_LengthLatestInterestArrivalPeriod 	0
scalar DataCentricNet.host[27].net 	ignoreRatio 	0.61025641025641
scalar DataCentricNet.host[28].net 	NumberOfNeighbours 	6
scalar DataCentricNet.host[28].net 	TotalNeighborLqi 	704
scalar DataCentricNet.host[28].net 	AverageNeighborLqi 	117.33333333333
scalar DataCentricNet.host[28].net 	MaxNeighborLqi 	159
scalar DataCentricNet.host[28].net 	MinNeighborLqi 	49
scalar DataCentricNet.host[28].net 	TEST_LengthLatestInterestArrivalPeriod 	0
scalar DataCentricNet.host[28].net 	ignoreRatio 	0.65945945945946
scalar DataCentricNet.host[29].net 	NumberOfNeighbours 	10
scalar DataCentricNet.host[29].net 	TotalNeighborLqi 	928
scalar DataCentricNet.host[29].net 	AverageNeighborLqi 	92.8
scalar DataCentricNet.host[29].net 	MaxNeighborLqi 	164
scalar DataCentricNet.host[29].net 	MinNeighborLqi 	1
scalar DataCentricNet.host[29].net 	TEST_LengthLatestInterestArrivalPeriod 	0
scalar DataCentricNet.host[29].net 	ignoreRatio 	0.6195652173913
scalar DataCentricNet.host[30].net 	NumberOfNeighbours 	2
scalar DataCentricNet.host[30].net 	TotalNeighborLqi 	282
scalar DataCentricNet.host[30].net 	AverageNeighborLqi 	141
scalar DataCentricNet.host[30].net 	MaxNeighborLqi 	151
scalar DataCentricNet.host[30].net 	MinNeighborLqi 	131
scalar DataCentricNet.host[30].net 	TEST_LengthLatestInterestArrivalPeriod 	0
scalar DataCentricNet.host[30].net 	ignoreRatio 	0.75206611570248
scalar DataCentricNet.host[31].net 	NumberOfNeighbours 	9
scalar DataCentricNet.host[31].net 	TotalNeighborLqi 	1083
scalar DataCentricNet.host[31].net 	AverageNeighborLqi 	120.33333333333
scalar DataCentricNet.host[31].net 	MaxNeighborLqi 	161
scalar DataCentricNet.host[31].net 	MinNeighborLqi 	11
scalar DataCentricNet.host[31].net 	TEST_LengthLatestInterestArrivalPeriod 	0
scalar DataCentricNet.host[31].net 	ignoreRatio 	0.60846560846561
scalar DataCentricNet.host[32].net 	NumberOfNeighbours 	5
scalar DataCentricNet.host[32].net 	TotalNeighborLqi 	631
scalar DataCentricNet.host[32].net 	AverageNeighborLqi 	126.2
scalar DataCentricNet.host[32].net 	MaxNeighborLqi 	153
scalar DataCentricNet.host[32].net 	MinNeighborLqi 	100
scalar DataCentricNet.host[32].net 	TEST_LengthLatestInterestArrivalPeriod 	0
scalar DataCentricNet.host[32].net 	ignoreRatio 	0.73239436619718
scalar DataCentricNet.host[33].net 	NumberOfNeighbours 	5
scalar DataCentricNet.host[33].net 	TotalNeighborLqi 	559
scalar DataCentricNet.host[33].net 	AverageNeighborLqi 	111.8
scalar DataCentricNet.host[33].net 	MaxNeighborLqi 	164
scalar DataCentricNet.host[33].net 	MinNeighborLqi 	21
scalar DataCentricNet.host[33].net 	TEST_LengthLatestInterestArrivalPeriod 	0
scalar DataCentricNet.host[33].net 	ignoreRatio 	0.58730158730159
scalar DataCentricNet.host[34].net 	NumberOfNeighbours 	5
scalar DataCentricNet.host[34].net 	TotalNeighborLqi 	650
scalar DataCentricNet.host[34].net 	AverageNeighborLqi 	130
scalar DataCentricNet.host[34].net 	MaxNeighborLqi 	161
scalar DataCentricNet.host[34].net 	MinNeighborLqi 	31
scalar DataCentricNet.host[34].net 	TEST_LengthLatestInterestArrivalPeriod 	0
scalar DataCentricNet.host[34].net 	ignoreRatio 	0.67901234567901
scalar DataCentricNet.host[35].net 	NumberOfNeighbours 	7
scalar DataCentricNet.host[35].net 	TotalNeighborLqi 	608
scalar DataCentricNet.host[35].net 	AverageNeighborLqi 	86.857142857143
scalar DataCentricNet.host[35].net 	MaxNeighborLqi 	169
scalar DataCentricNet.host[35].net 	MinNeighborLqi 	23
scalar DataCentricNet.host[35].net 	TEST_LengthLatestInterestArrivalPeriod 	0
scalar DataCentricNet.host[35].net 	ignoreRatio 	0.67213114754098
scalar DataCentricNet.host[36].net 	NumberOfNeighbours 	11
scalar DataCentricNet.host[36].net 	TotalNeighborLqi 	1522
scalar DataCentricNet.host[36].net 	AverageNeighborLqi 	138.36363636364
scalar DataCentricNet.host[36].net 	MaxNeighborLqi 	209
scalar DataCentricNet.host[36].net 	MinNeighborLqi 	1
scalar DataCentricNet.host[36].net 	TEST_LengthLatestInterestArrivalPeriod 	0
scalar DataCentricNet.host[36].net 	ignoreRatio 	0.54385964912281
scalar DataCentricNet.host[37].net 	NumberOfNeighbours 	6
scalar DataCentricNet.host[37].net 	TotalNeighborLqi 	527
scalar DataCentricNet.host[37].net 	AverageNeighborLqi 	87.833333333333
scalar DataCentricNet.host[37].net 	MaxNeighborLqi 	169
scalar DataCentricNet.host[37].net 	MinNeighborLqi 	1
scalar DataCentricNet.host[37].net 	TEST_LengthLatestInterestArrivalPeriod 	0
scalar DataCentricNet.host[37].net 	ignoreRatio 	0.52216748768473
scalar DataCentricNet.host[38].net 	NumberOfNeighbours 	6
scalar DataCentricNet.host[38].net 	TotalNeighborLqi 	541
scalar DataCentricNet.host[38].net 	AverageNeighborLqi 	90.166666666667
scalar DataCentricNet.host[38].net 	MaxNeighborLqi 	148
scalar DataCentricNet.host[38].net 	MinNeighborLqi 	23
scalar DataCentricNet.host[38].net 	TEST_LengthLatestInterestArrivalPeriod 	0
scalar DataCentricNet.host[38].net 	ignoreRatio 	0.58695652173913
scalar DataCentricNet.host[39].net 	NumberOfNeighbours 	7
scalar DataCentricNet.host[39].net 	TotalNeighborLqi 	507
scalar DataCentricNet.host[39].net 	AverageNeighborLqi 	72.428571428571
scalar DataCentricNet.host[39].net 	MaxNeighborLqi 	156
scalar DataCentricNet.host[39].net 	MinNeighborLqi 	1
scalar DataCentricNet.host[39].net 	TEST_LengthLatestInterestArrivalPeriod 	0
scalar DataCentricNet.host[39].net 	ignoreRatio 	0.6047619047619
scalar DataCentricNet.host[40].net 	NumberOfNeighbours 	10
scalar DataCentricNet.host[40].net 	TotalNeighborLqi 	871
scalar DataCentricNet.host[40].net 	AverageNeighborLqi 	87.1
scalar DataCentricNet.host[40].net 	MaxNeighborLqi 	153
scalar DataCentricNet.host[40].net 	MinNeighborLqi 	13
scalar DataCentricNet.host[40].net 	TEST_LengthLatestInterestArrivalPeriod 	0
scalar DataCentricNet.host[40].net 	ignoreRatio 	0.61458333333333
scalar DataCentricNet.host[41].net 	NumberOfNeighbours 	4
scalar DataCentricNet.host[41].net 	TotalNeighborLqi 	372
scalar DataCentricNet.host[41].net 	AverageNeighborLqi 	93
scalar DataCentricNet.host[41].net 	MaxNeighborLqi 	138
scalar DataCentricNet.host[41].net 	MinNeighborLqi 	1
scalar DataCentricNet.host[41].net 	TEST_LengthLatestInterestArrivalPeriod 	0
scalar DataCentricNet.host[41].net 	ignoreRatio 	0.72955974842767
scalar DataCentricNet.host[42].net 	NumberOfNeighbours 	10
scalar DataCentricNet.host[42].net 	TotalNeighborLqi 	1139
scalar DataCentricNet.host[42].net 	AverageNeighborLqi 	113.9
scalar DataCentricNet.host[42].net 	MaxNeighborLqi 	166
scalar DataCentricNet.host[42].net 	MinNeighborLqi 	26
scalar DataCentricNet.host[42].net 	TEST_LengthLatestInterestArrivalPeriod 	0
scalar DataCentricNet.host[42].net 	ignoreRatio 	0.54705882352941
scalar DataCentricNet.host[43].net 	NumberOfNeighbours 	6
scalar DataCentricNet.host[43].net 	TotalNeighborLqi 	701
scalar DataCentricNet.host[43].net 	AverageNeighborLqi 	116.83333333333
scalar DataCentricNet.host[43].net 	MaxNeighborLqi 	166
scalar DataCentricNet.host[43].net 	MinNeighborLqi 	1
scalar DataCentricNet.host[43].net 	TEST_LengthLatestInterestArrivalPeriod 	0
scalar DataCentricNet.host[43].net 	ignoreRatio 	0.69178082191781
scalar DataCentricNet.host[44].net 	NumberOfNeighbours 	8
scalar DataCentricNet.host[44].net 	TotalNeighborLqi 	1044
scalar DataCentricNet.host[44].net 	AverageNeighborLqi 	130.5
scalar DataCentricNet.host[44].net 	MaxNeighborLqi 	228
scalar DataCentricNet.host[44].net 	MinNeighborLqi 	31
scalar DataCentricNet.host[44].net 	TEST_LengthLatestInterestArrivalPeriod 	0
scalar DataCentricNet.host[44].net 	ignoreRatio 	0.57547169811321
scalar DataCentricNet.host[45].net 	NumberOfNeighbours 	6
scalar DataCentricNet.host[45].net 	TotalNeighborLqi 	405
scalar DataCentricNet.host[45].net 	AverageNeighborLqi 	67.5
scalar DataCentricNet.host[45].net 	MaxNeighborLqi 	118
scalar DataCentricNet.host[45].net 	MinNeighborLqi 	1
scalar DataCentricNet.host[45].net 	TEST_LengthLatestInterestArrivalPeriod 	0
scalar DataCentricNet.host[45].net 	ignoreRatio 	0.6431718061674
scalar DataCentricNet.host[46].net 	NumberOfNeighbours 	5
scalar DataCentricNet.host[46].net 	TotalNeighborLqi 	686
scalar DataCentricNet.host[46].net 	AverageNeighborLqi 	137.2
scalar DataCentricNet.host[46].net 	MaxNeighborLqi 	169
scalar DataCentricNet.host[46].net 	MinNeighborLqi 	51
scalar DataCentricNet.host[46].net 	TEST_LengthLatestInterestArrivalPeriod 	0
scalar DataCentricNet.host[46].net 	ignoreRatio 	0.68503937007874
scalar DataCentricNet.host[47].net 	NumberOfNeighbours 	7
scalar DataCentricNet.host[47].net 	TotalNeighborLqi 	766
scalar DataCentricNet.host[47].net 	AverageNeighborLqi 	109.42857142857
scalar DataCentricNet.host[47].net 	MaxNeighborLqi 	143
scalar DataCentricNet.host[47].net 	MinNeighborLqi 	18
scalar DataCentricNet.host[47].net 	TEST_LengthLatestInterestArrivalPeriod 	0
scalar DataCentricNet.host[47].net 	ignoreRatio 	0.48341232227488
scalar DataCentricNet.host[48].net 	NumberOfNeighbours 	5
scalar DataCentricNet.host[48].net 	TotalNeighborLqi 	560
scalar DataCentricNet.host[48].net 	AverageNeighborLqi 	112
scalar DataCentricNet.host[48].net 	MaxNeighborLqi 	166
scalar DataCentricNet.host[48].net 	MinNeighborLqi 	13
scalar DataCentricNet.host[48].net 	TEST_LengthLatestInterestArrivalPeriod 	0
scalar DataCentricNet.host[48].net 	ignoreRatio 	0.73248407643312
scalar DataCentricNet.host[49].net 	NumberOfNeighbours 	11
scalar DataCentricNet.host[49].net 	TotalNeighborLqi 	1252
scalar DataCentricNet.host[49].net 	AverageNeighborLqi 	113.81818181818
scalar DataCentricNet.host[49].net 	MaxNeighborLqi 	138
scalar DataCentricNet.host[49].net 	MinNeighborLqi 	82
scalar DataCentricNet.host[49].net 	TEST_LengthLatestInterestArrivalPeriod 	0
scalar DataCentricNet.host[49].net 	ignoreRatio 	0.49082568807339
scalar DataCentricNet.host[50].net 	NumberOfNeighbours 	6
scalar DataCentricNet.host[50].net 	TotalNeighborLqi 	692
scalar DataCentricNet.host[50].net 	AverageNeighborLqi 	115.33333333333
scalar DataCentricNet.host[50].net 	MaxNeighborLqi 	159
scalar DataCentricNet.host[50].net 	MinNeighborLqi 	39
scalar DataCentricNet.host[50].net 	TEST_LengthLatestInterestArrivalPeriod 	0
scalar DataCentricNet.host[50].net 	ignoreRatio 	0.56896551724138
scalar DataCentricNet.host[51].net 	NumberOfNeighbours 	9
scalar DataCentricNet.host[51].net 	TotalNeighborLqi 	1025
scalar DataCentricNet.host[51].net 	AverageNeighborLqi 	113.88888888889
scalar DataCentricNet.host[51].net 	MaxNeighborLqi 	151
scalar DataCentricNet.host[51].net 	MinNeighborLqi 	23
scalar DataCentricNet.host[51].net 	TEST_LengthLatestInterestArrivalPeriod 	0
scalar DataCentricNet.host[51].net 	ignoreRatio 	0.53947368421053
scalar DataCentricNet.host[52].net 	NumberOfNeighbours 	8
scalar DataCentricNet.host[52].net 	TotalNeighborLqi 	1103
scalar DataCentricNet.host[52].net 	AverageNeighborLqi 	137.875
scalar DataCentricNet.host[52].net 	MaxNeighborLqi 	159
scalar DataCentricNet.host[52].net 	MinNeighborLqi 	110
scalar DataCentricNet.host[52].net 	TEST_LengthLatestInterestArrivalPeriod 	0
scalar DataCentricNet.host[52].net 	ignoreRatio 	0.54304635761589
scalar DataCentricNet.host[53].net 	NumberOfNeighbours 	9
scalar DataCentricNet.host[53].net 	TotalNeighborLqi 	793
scalar DataCentricNet.host[53].net 	AverageNeighborLqi 	88.111111111111
scalar DataCentricNet.host[53].net 	MaxNeighborLqi 	159
scalar DataCentricNet.host[53].net 	MinNeighborLqi 	1
scalar DataCentricNet.host[53].net 	TEST_LengthLatestInterestArrivalPeriod 	0
scalar DataCentricNet.host[53].net 	ignoreRatio 	0.61928934010152
scalar DataCentricNet.host[54].net 	NumberOfNeighbours 	8
scalar DataCentricNet.host[54].net 	TotalNeighborLqi 	1094
scalar DataCentricNet.host[54].net 	AverageNeighborLqi 	136.75
scalar DataCentricNet.host[54].net 	MaxNeighborLqi 	153
scalar DataCentricNet.host[54].net 	MinNeighborLqi 	90
scalar DataCentricNet.host[54].net 	TEST_LengthLatestInterestArrivalPeriod 	0
scalar DataCentricNet.host[54].net 	ignoreRatio 	0.52739726027397
scalar DataCentricNet.host[55].net 	NumberOfNeighbours 	4
scalar DataCentricNet.host[55].net 	TotalNeighborLqi 	509
scalar DataCentricNet.host[55].net 	AverageNeighborLqi 	127.25
scalar DataCentricNet.host[55].net 	MaxNeighborLqi 	143
scalar DataCentricNet.host[55].net 	MinNeighborLqi 	118
scalar DataCentricNet.host[55].net 	TEST_LengthLatestInterestArrivalPeriod 	0
scalar DataCentricNet.host[55].net 	ignoreRatio 	0.7008547008547
scalar DataCentricNet.host[56].net 	NumberOfNeighbours 	5
scalar DataCentricNet.host[56].net 	TotalNeighborLqi 	549
scalar DataCentricNet.host[56].net 	AverageNeighborLqi 	109.8
scalar DataCentricNet.host[56].net 	MaxNeighborLqi 	143
scalar DataCentricNet.host[56].net 	MinNeighborLqi 	1
scalar DataCentricNet.host[56].net 	TEST_LengthLatestInterestArrivalPeriod 	0
scalar DataCentricNet.host[56].net 	ignoreRatio 	0.65217391304348
scalar DataCentricNet.host[57].net 	NumberOfNeighbours 	5
scalar DataCentricNet.host[57].net 	TotalNeighborLqi 	567
scalar DataCentricNet.host[57].net 	AverageNeighborLqi 	113.4
scalar DataCentricNet.host[57].net 	MaxNeighborLqi 	169
scalar DataCentricNet.host[57].net 	MinNeighborLqi 	1
scalar DataCentricNet.host[57].net 	TEST_LengthLatestInterestArrivalPeriod 	0
scalar DataCentricNet.host[57].net 	ignoreRatio 	0.72
scalar DataCentricNet.host[58].net 	NumberOfNeighbours 	4
scalar DataCentricNet.host[58].net 	TotalNeighborLqi 	414
scalar DataCentricNet.host[58].net 	AverageNeighborLqi 	103.5
scalar DataCentricNet.host[58].net 	MaxNeighborLqi 	169
scalar DataCentricNet.host[58].net 	MinNeighborLqi 	29
scalar DataCentricNet.host[58].net 	TEST_LengthLatestInterestArrivalPeriod 	0
scalar DataCentricNet.host[58].net 	ignoreRatio 	0.72289156626506
scalar DataCentricNet.host[59].net 	NumberOfNeighbours 	5
scalar DataCentricNet.host[59].net 	TotalNeighborLqi 	430
scalar DataCentricNet.host[59].net 	AverageNeighborLqi 	86
scalar DataCentricNet.host[59].net 	MaxNeighborLqi 	148
scalar DataCentricNet.host[59].net 	MinNeighborLqi 	36
scalar DataCentricNet.host[59].net 	TEST_LengthLatestInterestArrivalPeriod 	0
scalar DataCentricNet.host[59].net 	ignoreRatio 	0.66216216216216
scalar DataCentricNet.host[60].net 	NumberOfNeighbours 	4
scalar DataCentricNet.host[60].net 	TotalNeighborLqi 	326
scalar DataCentricNet.host[60].net 	AverageNeighborLqi 	81.5
scalar DataCentricNet.host[60].net 	MaxNeighborLqi 	125
scalar DataCentricNet.host[60].net 	MinNeighborLqi 	1
scalar DataCentricNet.host[60].net 	TEST_LengthLatestInterestArrivalPeriod 	0
scalar DataCentricNet.host[60].net 	ignoreRatio 	0.60732984293194
scalar DataCentricNet.host[61].net 	NumberOfNeighbours 	4
scalar DataCentricNet.host[61].net 	TotalNeighborLqi 	624
scalar DataCentricNet.host[61].net 	AverageNeighborLqi 	156
scalar DataCentricNet.host[61].net 	MaxNeighborLqi 	169
scalar DataCentricNet.host[61].net 	MinNeighborLqi 	146
scalar DataCentricNet.host[61].net 	TEST_LengthLatestInterestArrivalPeriod 	0
scalar DataCentricNet.host[61].net 	ignoreRatio 	0.69587628865979
scalar DataCentricNet.host[62].net 	NumberOfNeighbours 	4
scalar DataCentricNet.host[62].net 	TotalNeighborLqi 	589
scalar DataCentricNet.host[62].net 	AverageNeighborLqi 	147.25
scalar DataCentricNet.host[62].net 	MaxNeighborLqi 	169
scalar DataCentricNet.host[62].net 	MinNeighborLqi 	110
scalar DataCentricNet.host[62].net 	TEST_LengthLatestInterestArrivalPeriod 	0
scalar DataCentricNet.host[62].net 	ignoreRatio 	0.73584905660377
scalar DataCentricNet.host[63].net 	NumberOfNeighbours 	5
scalar DataCentricNet.host[63].net 	TotalNeighborLqi 	518
scalar DataCentricNet.host[63].net 	AverageNeighborLqi 	103.6
scalar DataCentricNet.host[63].net 	MaxNeighborLqi 	141
scalar DataCentricNet.host[63].net 	MinNeighborLqi 	36
scalar DataCentricNet.host[63].net 	TEST_LengthLatestInterestArrivalPeriod 	0
scalar DataCentricNet.host[63].net 	ignoreRatio 	0.65079365079365
scalar DataCentricNet.host[64].net 	NumberOfNeighbours 	10
scalar DataCentricNet.host[64].net 	TotalNeighborLqi 	1152
scalar DataCentricNet.host[64].net 	AverageNeighborLqi 	115.2
scalar DataCentricNet.host[64].net 	MaxNeighborLqi 	169
scalar DataCentricNet.host[64].net 	MinNeighborLqi 	49
scalar DataCentricNet.host[64].net 	TEST_LengthLatestInterestArrivalPeriod 	0
scalar DataCentricNet.host[64].net 	ignoreRatio 	0.58928571428571
scalar DataCentricNet.host[65].net 	NumberOfNeighbours 	10
scalar DataCentricNet.host[65].net 	TotalNeighborLqi 	1154
scalar DataCentricNet.host[65].net 	AverageNeighborLqi 	115.4
scalar DataCentricNet.host[65].net 	MaxNeighborLqi 	164
scalar DataCentricNet.host[65].net 	MinNeighborLqi 	29
scalar DataCentricNet.host[65].net 	TEST_LengthLatestInterestArrivalPeriod 	0
scalar DataCentricNet.host[65].net 	ignoreRatio 	0.65625
scalar DataCentricNet.host[66].net 	NumberOfNeighbours 	9
scalar DataCentricNet.host[66].net 	TotalNeighborLqi 	1310
scalar DataCentricNet.host[66].net 	AverageNeighborLqi 	145.55555555556
scalar DataCentricNet.host[66].net 	MaxNeighborLqi 	164
scalar DataCentricNet.host[66].net 	MinNeighborLqi 	123
scalar DataCentricNet.host[66].net 	TEST_LengthLatestInterestArrivalPeriod 	0
scalar DataCentricNet.host[66].net 	ignoreRatio 	0.55660377358491
scalar DataCentricNet.host[67].net 	NumberOfNeighbours 	3
scalar DataCentricNet.host[67].net 	TotalNeighborLqi 	287
scalar DataCentricNet.host[67].net 	AverageNeighborLqi 	95.666666666667
scalar DataCentricNet.host[67].net 	MaxNeighborLqi 	138
scalar DataCentricNet.host[67].net 	MinNeighborLqi 	36
scalar DataCentricNet.host[67].net 	TEST_LengthLatestInterestArrivalPeriod 	0
scalar DataCentricNet.host[67].net 	ignoreRatio 	0.74452554744526
scalar DataCentricNet.host[68].net 	NumberOfNeighbours 	2
scalar DataCentricNet.host[68].net 	TotalNeighborLqi 	203
scalar DataCentricNet.host[68].net 	AverageNeighborLqi 	101.5
scalar DataCentricNet.host[68].net 	MaxNeighborLqi 	141
scalar DataCentricNet.host[68].net 	MinNeighborLqi 	62
scalar DataCentricNet.host[68].net 	TEST_LengthLatestInterestArrivalPeriod 	0
scalar DataCentricNet.host[68].net 	ignoreRatio 	0.79237288135593
scalar DataCentricNet.host[69].net 	NumberOfNeighbours 	10
scalar DataCentricNet.host[69].net 	TotalNeighborLqi 	1189
scalar DataCentricNet.host[69].net 	AverageNeighborLqi 	118.9
scalar DataCentricNet.host[69].net 	MaxNeighborLqi 	164
scalar DataCentricNet.host[69].net 	MinNeighborLqi 	1
scalar DataCentricNet.host[69].net 	TEST_LengthLatestInterestArrivalPeriod 	0
scalar DataCentricNet.host[69].net 	ignoreRatio 	0.55056179775281
scalar DataCentricNet.host[70].net 	NumberOfNeighbours 	3
scalar DataCentricNet.host[70].net 	TotalNeighborLqi 	474
scalar DataCentricNet.host[70].net 	AverageNeighborLqi 	158
scalar DataCentricNet.host[70].net 	MaxNeighborLqi 	164
scalar DataCentricNet.host[70].net 	MinNeighborLqi 	146
scalar DataCentricNet.host[70].net 	TEST_LengthLatestInterestArrivalPeriod 	0
scalar DataCentricNet.host[70].net 	ignoreRatio 	0.70562770562771
scalar DataCentricNet.host[71].net 	NumberOfNeighbours 	3
scalar DataCentricNet.host[71].net 	TotalNeighborLqi 	410
scalar DataCentricNet.host[71].net 	AverageNeighborLqi 	136.66666666667
scalar DataCentricNet.host[71].net 	MaxNeighborLqi 	164
scalar DataCentricNet.host[71].net 	MinNeighborLqi 	105
scalar DataCentricNet.host[71].net 	TEST_LengthLatestInterestArrivalPeriod 	0
scalar DataCentricNet.host[71].net 	ignoreRatio 	0.77551020408163
scalar DataCentricNet.host[72].net 	NumberOfNeighbours 	9
scalar DataCentricNet.host[72].net 	TotalNeighborLqi 	1016
scalar DataCentricNet.host[72].net 	AverageNeighborLqi 	112.88888888889
scalar DataCentricNet.host[72].net 	MaxNeighborLqi 	159
scalar DataCentricNet.host[72].net 	MinNeighborLqi 	1
scalar DataCentricNet.host[72].net 	TEST_LengthLatestInterestArrivalPeriod 	0
scalar DataCentricNet.host[72].net 	ignoreRatio 	0.58928571428571
scalar DataCentricNet.host[73].net 	NumberOfNeighbours 	4
scalar DataCentricNet.host[73].net 	TotalNeighborLqi 	532
scalar DataCentricNet.host[73].net 	AverageNeighborLqi 	133
scalar DataCentricNet.host[73].net 	MaxNeighborLqi 	169
scalar DataCentricNet.host[73].net 	MinNeighborLqi 	54
scalar DataCentricNet.host[73].net 	TEST_LengthLatestInterestArrivalPeriod 	0
scalar DataCentricNet.host[73].net 	ignoreRatio 	0.69469026548673
scalar DataCentricNet.host[74].net 	NumberOfNeighbours 	6
scalar DataCentricNet.host[74].net 	TotalNeighborLqi 	809
scalar DataCentricNet.host[74].net 	AverageNeighborLqi 	134.83333333333
scalar DataCentricNet.host[74].net 	MaxNeighborLqi 	166
scalar DataCentricNet.host[74].net 	MinNeighborLqi 	108
scalar DataCentricNet.host[74].net 	TEST_LengthLatestInterestArrivalPeriod 	0
scalar DataCentricNet.host[74].net 	ignoreRatio 	0.69711538461538
scalar DataCentricNet.host[75].net 	NumberOfNeighbours 	9
scalar DataCentricNet.host[75].net 	TotalNeighborLqi 	1008
scalar DataCentricNet.host[75].net 	AverageNeighborLqi 	112
scalar DataCentricNet.host[75].net 	MaxNeighborLqi 	156
scalar DataCentricNet.host[75].net 	MinNeighborLqi 	62
scalar DataCentricNet.host[75].net 	TEST_LengthLatestInterestArrivalPeriod 	0
scalar DataCentricNet.host[75].net 	ignoreRatio 	0.44897959183673
scalar DataCentricNet.host[76].net 	NumberOfNeighbours 	7
scalar DataCentricNet.host[76].net 	TotalNeighborLqi 	851
scalar DataCentricNet.host[76].net 	AverageNeighborLqi 	121.57142857143
scalar DataCentricNet.host[76].net 	MaxNeighborLqi 	169
scalar DataCentricNet.host[76].net 	MinNeighborLqi 	34
scalar DataCentricNet.host[76].net 	TEST_LengthLatestInterestArrivalPeriod 	0
scalar DataCentricNet.host[76].net 	ignoreRatio 	0.61165048543689
scalar DataCentricNet.host[77].net 	NumberOfNeighbours 	10
scalar DataCentricNet.host[77].net 	TotalNeighborLqi 	1108
scalar DataCentricNet.host[77].net 	AverageNeighborLqi 	110.8
scalar DataCentricNet.host[77].net 	MaxNeighborLqi 	166
scalar DataCentricNet.host[77].net 	MinNeighborLqi 	1
scalar DataCentricNet.host[77].net 	TEST_LengthLatestInterestArrivalPeriod 	0
scalar DataCentricNet.host[77].net 	ignoreRatio 	0.64766839378238
scalar DataCentricNet.host[78].net 	NumberOfNeighbours 	9
scalar DataCentricNet.host[78].net 	TotalNeighborLqi 	957
scalar DataCentricNet.host[78].net 	AverageNeighborLqi 	106.33333333333
scalar DataCentricNet.host[78].net 	MaxNeighborLqi 	159
scalar DataCentricNet.host[78].net 	MinNeighborLqi 	1
scalar DataCentricNet.host[78].net 	TEST_LengthLatestInterestArrivalPeriod 	0
scalar DataCentricNet.host[78].net 	ignoreRatio 	0.62745098039216
scalar DataCentricNet.host[79].net 	NumberOfNeighbours 	9
scalar DataCentricNet.host[79].net 	TotalNeighborLqi 	961
scalar DataCentricNet.host[79].net 	AverageNeighborLqi 	106.77777777778
scalar DataCentricNet.host[79].net 	MaxNeighborLqi 	166
scalar DataCentricNet.host[79].net 	MinNeighborLqi 	1
scalar DataCentricNet.host[79].net 	TEST_LengthLatestInterestArrivalPeriod 	0
scalar DataCentricNet.host[79].net 	ignoreRatio 	0.47846889952153
scalar DataCentricNet.host[80].net 	NumberOfNeighbours 	7
scalar DataCentricNet.host[80].net 	TotalNeighborLqi 	968
scalar DataCentricNet.host[80].net 	AverageNeighborLqi 	138.28571428571
scalar DataCentricNet.host[80].net 	MaxNeighborLqi 	169
scalar DataCentricNet.host[80].net 	MinNeighborLqi 	85
scalar DataCentricNet.host[80].net 	TEST_LengthLatestInterestArrivalPeriod 	0
scalar DataCentricNet.host[80].net 	ignoreRatio 	0.54976303317536
scalar DataCentricNet.host[81].net 	NumberOfNeighbours 	1
scalar DataCentricNet.host[81].net 	TotalNeighborLqi 	31
scalar DataCentricNet.host[81].net 	AverageNeighborLqi 	31
scalar DataCentricNet.host[81].net 	MaxNeighborLqi 	31
scalar DataCentricNet.host[81].net 	MinNeighborLqi 	31
scalar DataCentricNet.host[81].net 	TEST_LengthLatestInterestArrivalPeriod 	0
scalar DataCentricNet.host[81].net 	ignoreRatio 	0.82666666666667
scalar DataCentricNet.host[82].net 	NumberOfNeighbours 	8
scalar DataCentricNet.host[82].net 	TotalNeighborLqi 	984
scalar DataCentricNet.host[82].net 	AverageNeighborLqi 	123
scalar DataCentricNet.host[82].net 	MaxNeighborLqi 	213
scalar DataCentricNet.host[82].net 	MinNeighborLqi 	29
scalar DataCentricNet.host[82].net 	TEST_LengthLatestInterestArrivalPeriod 	0
scalar DataCentricNet.host[82].net 	ignoreRatio 	0.624
scalar DataCentricNet.host[83].net 	NumberOfNeighbours 	11
scalar DataCentricNet.host[83].net 	TotalNeighborLqi 	1389
scalar DataCentricNet.host[83].net 	AverageNeighborLqi 	126.27272727273
scalar DataCentricNet.host[83].net 	MaxNeighborLqi 	159
scalar DataCentricNet.host[83].net 	MinNeighborLqi 	80
scalar DataCentricNet.host[83].net 	TEST_LengthLatestInterestArrivalPeriod 	0
scalar DataCentricNet.host[83].net 	ignoreRatio 	0.4228855721393
scalar DataCentricNet.host[84].net 	NumberOfNeighbours 	7
scalar DataCentricNet.host[84].net 	TotalNeighborLqi 	876
scalar DataCentricNet.host[84].net 	AverageNeighborLqi 	125.14285714286
scalar DataCentricNet.host[84].net 	MaxNeighborLqi 	166
scalar DataCentricNet.host[84].net 	MinNeighborLqi 	18
scalar DataCentricNet.host[84].net 	TEST_LengthLatestInterestArrivalPeriod 	0
scalar DataCentricNet.host[84].net 	ignoreRatio 	0.52582159624413
scalar DataCentricNet.host[85].net 	NumberOfNeighbours 	5
scalar DataCentricNet.host[85].net 	TotalNeighborLqi 	706
scalar DataCentricNet.host[85].net 	AverageNeighborLqi 	141.2
scalar DataCentricNet.host[85].net 	MaxNeighborLqi 	159
scalar DataCentricNet.host[85].net 	MinNeighborLqi 	113
scalar DataCentricNet.host[85].net 	TEST_LengthLatestInterestArrivalPeriod 	0
scalar DataCentricNet.host[85].net 	ignoreRatio 	0.765625
scalar DataCentricNet.host[86].net 	NumberOfNeighbours 	10
scalar DataCentricNet.host[86].net 	TotalNeighborLqi 	1241
scalar DataCentricNet.host[86].net 	AverageNeighborLqi 	124.1
scalar DataCentricNet.host[86].net 	MaxNeighborLqi 	169
scalar DataCentricNet.host[86].net 	MinNeighborLqi 	41
scalar DataCentricNet.host[86].net 	TEST_LengthLatestInterestArrivalPeriod 	0
scalar DataCentricNet.host[86].net 	ignoreRatio 	0.62280701754386
scalar DataCentricNet.host[87].net 	NumberOfNeighbours 	5
scalar DataCentricNet.host[87].net 	TotalNeighborLqi 	733
scalar DataCentricNet.host[87].net 	AverageNeighborLqi 	146.6
scalar DataCentricNet.host[87].net 	MaxNeighborLqi 	169
scalar DataCentricNet.host[87].net 	MinNeighborLqi 	102
scalar DataCentricNet.host[87].net 	TEST_LengthLatestInterestArrivalPeriod 	0
scalar DataCentricNet.host[87].net 	ignoreRatio 	0.70430107526882
scalar DataCentricNet.host[88].net 	NumberOfNeighbours 	10
scalar DataCentricNet.host[88].net 	TotalNeighborLqi 	956
scalar DataCentricNet.host[88].net 	AverageNeighborLqi 	95.6
scalar DataCentricNet.host[88].net 	MaxNeighborLqi 	141
scalar DataCentricNet.host[88].net 	MinNeighborLqi 	49
scalar DataCentricNet.host[88].net 	TEST_LengthLatestInterestArrivalPeriod 	0
scalar DataCentricNet.host[88].net 	ignoreRatio 	0.4968152866242
scalar DataCentricNet.host[89].net 	NumberOfNeighbours 	5
scalar DataCentricNet.host[89].net 	TotalNeighborLqi 	576
scalar DataCentricNet.host[89].net 	AverageNeighborLqi 	115.2
scalar DataCentricNet.host[89].net 	MaxNeighborLqi 	151
scalar DataCentricNet.host[89].net 	MinNeighborLqi 	74
scalar DataCentricNet.host[89].net 	TEST_LengthLatestInterestArrivalPeriod 	0
scalar DataCentricNet.host[89].net 	ignoreRatio 	0.73743016759777
scalar DataCentricNet.host[90].net 	NumberOfNeighbours 	11
scalar DataCentricNet.host[90].net 	TotalNeighborLqi 	1396
scalar DataCentricNet.host[90].net 	AverageNeighborLqi 	126.90909090909
scalar DataCentricNet.host[90].net 	MaxNeighborLqi 	164
scalar DataCentricNet.host[90].net 	MinNeighborLqi 	51
scalar DataCentricNet.host[90].net 	TEST_LengthLatestInterestArrivalPeriod 	0
scalar DataCentricNet.host[90].net 	ignoreRatio 	0.5983606557377
scalar DataCentricNet.host[91].net 	NumberOfNeighbours 	7
scalar DataCentricNet.host[91].net 	TotalNeighborLqi 	829
scalar DataCentricNet.host[91].net 	AverageNeighborLqi 	118.42857142857
scalar DataCentricNet.host[91].net 	MaxNeighborLqi 	162
scalar DataCentricNet.host[91].net 	MinNeighborLqi 	1
scalar DataCentricNet.host[91].net 	TEST_LengthLatestInterestArrivalPeriod 	0
scalar DataCentricNet.host[91].net 	ignoreRatio 	0.63414634146341
scalar DataCentricNet.host[92].net 	NumberOfNeighbours 	10
scalar DataCentricNet.host[92].net 	TotalNeighborLqi 	1224
scalar DataCentricNet.host[92].net 	AverageNeighborLqi 	122.4
scalar DataCentricNet.host[92].net 	MaxNeighborLqi 	153
scalar DataCentricNet.host[92].net 	MinNeighborLqi 	54
scalar DataCentricNet.host[92].net 	TEST_LengthLatestInterestArrivalPeriod 	0
scalar DataCentricNet.host[92].net 	ignoreRatio 	0.53900709219858
scalar DataCentricNet.host[93].net 	NumberOfNeighbours 	10
scalar DataCentricNet.host[93].net 	TotalNeighborLqi 	1083
scalar DataCentricNet.host[93].net 	AverageNeighborLqi 	108.3
scalar DataCentricNet.host[93].net 	MaxNeighborLqi 	161
scalar DataCentricNet.host[93].net 	MinNeighborLqi 	29
scalar DataCentricNet.host[93].net 	TEST_LengthLatestInterestArrivalPeriod 	0
scalar DataCentricNet.host[93].net 	ignoreRatio 	0.63809523809524
scalar DataCentricNet.host[94].net 	NumberOfNeighbours 	5
scalar DataCentricNet.host[94].net 	TotalNeighborLqi 	520
scalar DataCentricNet.host[94].net 	AverageNeighborLqi 	104
scalar DataCentricNet.host[94].net 	MaxNeighborLqi 	153
scalar DataCentricNet.host[94].net 	MinNeighborLqi 	3
scalar DataCentricNet.host[94].net 	TEST_LengthLatestInterestArrivalPeriod 	0
scalar DataCentricNet.host[94].net 	ignoreRatio 	0.65060240963855
scalar DataCentricNet.host[95].net 	NumberOfNeighbours 	10
scalar DataCentricNet.host[95].net 	TotalNeighborLqi 	1234
scalar DataCentricNet.host[95].net 	AverageNeighborLqi 	123.4
scalar DataCentricNet.host[95].net 	MaxNeighborLqi 	159
scalar DataCentricNet.host[95].net 	MinNeighborLqi 	54
scalar DataCentricNet.host[95].net 	TEST_LengthLatestInterestArrivalPeriod 	0
scalar DataCentricNet.host[95].net 	ignoreRatio 	0.57837837837838
scalar DataCentricNet.host[96].net 	NumberOfNeighbours 	5
scalar DataCentricNet.host[96].net 	TotalNeighborLqi 	579
scalar DataCentricNet.host[96].net 	AverageNeighborLqi 	115.8
scalar DataCentricNet.host[96].net 	MaxNeighborLqi 	161
scalar DataCentricNet.host[96].net 	MinNeighborLqi 	1
scalar DataCentricNet.host[96].net 	TEST_LengthLatestInterestArrivalPeriod 	0
scalar DataCentricNet.host[96].net 	ignoreRatio 	0.63451776649746
scalar DataCentricNet.host[97].net 	NumberOfNeighbours 	6
scalar DataCentricNet.host[97].net 	TotalNeighborLqi 	712
scalar DataCentricNet.host[97].net 	AverageNeighborLqi 	118.66666666667
scalar DataCentricNet.host[97].net 	MaxNeighborLqi 	164
scalar DataCentricNet.host[97].net 	MinNeighborLqi 	77
scalar DataCentricNet.host[97].net 	TEST_LengthLatestInterestArrivalPeriod 	0
scalar DataCentricNet.host[97].net 	ignoreRatio 	0.65765765765766
scalar DataCentricNet.host[98].net 	NumberOfNeighbours 	6
scalar DataCentricNet.host[98].net 	TotalNeighborLqi 	597
scalar DataCentricNet.host[98].net 	AverageNeighborLqi 	99.5
scalar DataCentricNet.host[98].net 	MaxNeighborLqi 	148
scalar DataCentricNet.host[98].net 	MinNeighborLqi 	1
scalar DataCentricNet.host[98].net 	TEST_LengthLatestInterestArrivalPeriod 	0
scalar DataCentricNet.host[98].net 	ignoreRatio 	0.61702127659574
scalar DataCentricNet.host[99].net 	NumberOfNeighbours 	7
scalar DataCentricNet.host[99].net 	TotalNeighborLqi 	730
scalar DataCentricNet.host[99].net 	AverageNeighborLqi 	104.28571428571
scalar DataCentricNet.host[99].net 	MaxNeighborLqi 	169
scalar DataCentricNet.host[99].net 	MinNeighborLqi 	51
scalar DataCentricNet.host[99].net 	TEST_LengthLatestInterestArrivalPeriod 	0
scalar DataCentricNet.host[99].net 	ignoreRatio 	0.65753424657534
scalar DataCentricNet.host[100].net 	NumberOfNeighbours 	9
scalar DataCentricNet.host[100].net 	TotalNeighborLqi 	1261
scalar DataCentricNet.host[100].net 	AverageNeighborLqi 	140.11111111111
scalar DataCentricNet.host[100].net 	MaxNeighborLqi 	169
scalar DataCentricNet.host[100].net 	MinNeighborLqi 	74
scalar DataCentricNet.host[100].net 	TEST_LengthLatestInterestArrivalPeriod 	0
scalar DataCentricNet.host[100].net 	ignoreRatio 	0.50731707317073
scalar DataCentricNet.host[101].net 	NumberOfNeighbours 	4
scalar DataCentricNet.host[101].net 	TotalNeighborLqi 	530
scalar DataCentricNet.host[101].net 	AverageNeighborLqi 	132.5
scalar DataCentricNet.host[101].net 	MaxNeighborLqi 	161
scalar DataCentricNet.host[101].net 	MinNeighborLqi 	105
scalar DataCentricNet.host[101].net 	TEST_LengthLatestInterestArrivalPeriod 	0
scalar DataCentricNet.host[101].net 	ignoreRatio 	0.81212121212121
scalar DataCentricNet.host[102].net 	NumberOfNeighbours 	9
scalar DataCentricNet.host[102].net 	TotalNeighborLqi 	1099
scalar DataCentricNet.host[102].net 	AverageNeighborLqi 	122.11111111111
scalar DataCentricNet.host[102].net 	MaxNeighborLqi 	164
scalar DataCentricNet.host[102].net 	MinNeighborLqi 	21
scalar DataCentricNet.host[102].net 	TEST_LengthLatestInterestArrivalPeriod 	0
scalar DataCentricNet.host[102].net 	ignoreRatio 	0.47482014388489
scalar DataCentricNet.host[103].net 	NumberOfNeighbours 	7
scalar DataCentricNet.host[103].net 	TotalNeighborLqi 	558
scalar DataCentricNet.host[103].net 	AverageNeighborLqi 	79.714285714286
scalar DataCentricNet.host[103].net 	MaxNeighborLqi 	161
scalar DataCentricNet.host[103].net 	MinNeighborLqi 	1
scalar DataCentricNet.host[103].net 	TEST_LengthLatestInterestArrivalPeriod 	0
scalar DataCentricNet.host[103].net 	ignoreRatio 	0.59345794392523
scalar DataCentricNet.host[104].net 	NumberOfNeighbours 	5
scalar DataCentricNet.host[104].net 	TotalNeighborLqi 	452
scalar DataCentricNet.host[104].net 	AverageNeighborLqi 	90.4
scalar DataCentricNet.host[104].net 	MaxNeighborLqi 	151
scalar DataCentricNet.host[104].net 	MinNeighborLqi 	3
scalar DataCentricNet.host[104].net 	TEST_LengthLatestInterestArrivalPeriod 	0
scalar DataCentricNet.host[104].net 	ignoreRatio 	0.67777777777778
scalar DataCentricNet.dataCentricNetworkMan 	DataArrivals 	156
scalar DataCentricNet.dataCentricNetworkMan 	PercentageArrivals 	100
scalar DataCentricNet.dataCentricNetworkMan 	DataFailures 	0
scalar DataCentricNet.dataCentricNetworkMan 	PercentageFailures 	0
scalar DataCentricNet.dataCentricNetworkMan 	MeanE2EDelay 	0.018138010420949
scalar DataCentricNet.dataCentricNetworkMan 	StdDevE2EDelay 	0.01006595864164
scalar DataCentricNet.dataCentricNetworkMan 	MaxE2EDelay 	0.073774616799
scalar DataCentricNet.dataCentricNetworkMan 	MinE2EDelay 	0.002846082647
scalar DataCentricNet.dataCentricNetworkMan 	numControlPackets 	966
scalar DataCentricNet.dataCentricNetworkMan 	MeanBPS 	0
scalar DataCentricNet.dataCentricNetworkMan 	StdDevBPS 	-1.#IND
scalar DataCentricNet.dataCentricNetworkMan 	MaxBPS 	0
scalar DataCentricNet.dataCentricNetworkMan 	MinBPS 	0
