version 2
run DataCentric_Experiment_1-37-20121129-16:13:42-2924
attr configname DataCentric_Experiment_1
attr datetime 20121129-16:13:42
attr experiment DataCentric_Experiment_1
attr inifile DataCentric_2.ini
attr iterationvars $numNodes=87
attr iterationvars2 "$numNodes=87, $repetition=0"
attr measurement $numNodes=87
attr network DataCentricNet
attr numNodes 87
attr processid 2924
attr repetition 0
attr replication #0
attr resultdir results
attr runnumber 37
attr seedset 37

scalar . 	numNodes 	87
scalar DataCentricNet.host[0].net 	NumberOfNeighbours 	4
scalar DataCentricNet.host[0].net 	TotalNeighborLqi 	303
scalar DataCentricNet.host[0].net 	AverageNeighborLqi 	75.75
scalar DataCentricNet.host[0].net 	MaxNeighborLqi 	131
scalar DataCentricNet.host[0].net 	MinNeighborLqi 	0
scalar DataCentricNet.host[0].net 	TEST_LengthLatestInterestArrivalPeriod 	0
scalar DataCentricNet.host[0].net 	ignoreRatio 	0.54502369668246
scalar DataCentricNet.host[1].net 	NumberOfNeighbours 	6
scalar DataCentricNet.host[1].net 	TotalNeighborLqi 	615
scalar DataCentricNet.host[1].net 	AverageNeighborLqi 	102.5
scalar DataCentricNet.host[1].net 	MaxNeighborLqi 	161
scalar DataCentricNet.host[1].net 	MinNeighborLqi 	0
scalar DataCentricNet.host[1].net 	TEST_LengthLatestInterestArrivalPeriod 	0
scalar DataCentricNet.host[1].net 	ignoreRatio 	0.64625850340136
scalar DataCentricNet.host[2].net 	NumberOfNeighbours 	10
scalar DataCentricNet.host[2].net 	TotalNeighborLqi 	918
scalar DataCentricNet.host[2].net 	AverageNeighborLqi 	91.8
scalar DataCentricNet.host[2].net 	MaxNeighborLqi 	151
scalar DataCentricNet.host[2].net 	MinNeighborLqi 	0
scalar DataCentricNet.host[2].net 	TEST_LengthLatestInterestArrivalPeriod 	0
scalar DataCentricNet.host[2].net 	ignoreRatio 	0.61885245901639
scalar DataCentricNet.host[3].net 	NumberOfNeighbours 	8
scalar DataCentricNet.host[3].net 	TotalNeighborLqi 	937
scalar DataCentricNet.host[3].net 	AverageNeighborLqi 	117.125
scalar DataCentricNet.host[3].net 	MaxNeighborLqi 	166
scalar DataCentricNet.host[3].net 	MinNeighborLqi 	58
scalar DataCentricNet.host[3].net 	TEST_LengthLatestInterestArrivalPeriod 	0
scalar DataCentricNet.host[3].net 	ignoreRatio 	0.375
scalar DataCentricNet.host[4].net 	NumberOfNeighbours 	7
scalar DataCentricNet.host[4].net 	TotalNeighborLqi 	991
scalar DataCentricNet.host[4].net 	AverageNeighborLqi 	141.57142857143
scalar DataCentricNet.host[4].net 	MaxNeighborLqi 	241
scalar DataCentricNet.host[4].net 	MinNeighborLqi 	0
scalar DataCentricNet.host[4].net 	TEST_LengthLatestInterestArrivalPeriod 	0
scalar DataCentricNet.host[4].net 	ignoreRatio 	0.56170212765957
scalar DataCentricNet.host[5].net 	NumberOfNeighbours 	7
scalar DataCentricNet.host[5].net 	TotalNeighborLqi 	694
scalar DataCentricNet.host[5].net 	AverageNeighborLqi 	99.142857142857
scalar DataCentricNet.host[5].net 	MaxNeighborLqi 	148
scalar DataCentricNet.host[5].net 	MinNeighborLqi 	39
scalar DataCentricNet.host[5].net 	TEST_LengthLatestInterestArrivalPeriod 	0
scalar DataCentricNet.host[5].net 	ignoreRatio 	0.5375
scalar DataCentricNet.host[6].net 	NumberOfNeighbours 	4
scalar DataCentricNet.host[6].net 	TotalNeighborLqi 	458
scalar DataCentricNet.host[6].net 	AverageNeighborLqi 	114.5
scalar DataCentricNet.host[6].net 	MaxNeighborLqi 	169
scalar DataCentricNet.host[6].net 	MinNeighborLqi 	58
scalar DataCentricNet.host[6].net 	TEST_LengthLatestInterestArrivalPeriod 	0
scalar DataCentricNet.host[6].net 	ignoreRatio 	0.5
scalar DataCentricNet.host[7].net 	NumberOfNeighbours 	4
scalar DataCentricNet.host[7].net 	TotalNeighborLqi 	327
scalar DataCentricNet.host[7].net 	AverageNeighborLqi 	81.75
scalar DataCentricNet.host[7].net 	MaxNeighborLqi 	100
scalar DataCentricNet.host[7].net 	MinNeighborLqi 	58
scalar DataCentricNet.host[7].net 	TEST_LengthLatestInterestArrivalPeriod 	0
scalar DataCentricNet.host[7].net 	ignoreRatio 	0.61363636363636
scalar DataCentricNet.host[8].net 	NumberOfNeighbours 	4
scalar DataCentricNet.host[8].net 	TotalNeighborLqi 	353
scalar DataCentricNet.host[8].net 	AverageNeighborLqi 	88.25
scalar DataCentricNet.host[8].net 	MaxNeighborLqi 	143
scalar DataCentricNet.host[8].net 	MinNeighborLqi 	34
scalar DataCentricNet.host[8].net 	TEST_LengthLatestInterestArrivalPeriod 	0
scalar DataCentricNet.host[8].net 	ignoreRatio 	0.75
scalar DataCentricNet.host[9].net 	NumberOfNeighbours 	3
scalar DataCentricNet.host[9].net 	TotalNeighborLqi 	294
scalar DataCentricNet.host[9].net 	AverageNeighborLqi 	98
scalar DataCentricNet.host[9].net 	MaxNeighborLqi 	156
scalar DataCentricNet.host[9].net 	MinNeighborLqi 	0
scalar DataCentricNet.host[9].net 	TEST_LengthLatestInterestArrivalPeriod 	0
scalar DataCentricNet.host[9].net 	ignoreRatio 	0.75
scalar DataCentricNet.host[10].net 	NumberOfNeighbours 	5
scalar DataCentricNet.host[10].net 	TotalNeighborLqi 	641
scalar DataCentricNet.host[10].net 	AverageNeighborLqi 	128.2
scalar DataCentricNet.host[10].net 	MaxNeighborLqi 	169
scalar DataCentricNet.host[10].net 	MinNeighborLqi 	58
scalar DataCentricNet.host[10].net 	TEST_LengthLatestInterestArrivalPeriod 	0
scalar DataCentricNet.host[10].net 	ignoreRatio 	0.43243243243243
scalar DataCentricNet.host[11].net 	NumberOfNeighbours 	4
scalar DataCentricNet.host[11].net 	TotalNeighborLqi 	149
scalar DataCentricNet.host[11].net 	AverageNeighborLqi 	37.25
scalar DataCentricNet.host[11].net 	MaxNeighborLqi 	64
scalar DataCentricNet.host[11].net 	MinNeighborLqi 	1
scalar DataCentricNet.host[11].net 	TEST_LengthLatestInterestArrivalPeriod 	0
scalar DataCentricNet.host[11].net 	ignoreRatio 	0.27272727272727
scalar DataCentricNet.host[12].net 	NumberOfNeighbours 	4
scalar DataCentricNet.host[12].net 	TotalNeighborLqi 	514
scalar DataCentricNet.host[12].net 	AverageNeighborLqi 	128.5
scalar DataCentricNet.host[12].net 	MaxNeighborLqi 	153
scalar DataCentricNet.host[12].net 	MinNeighborLqi 	82
scalar DataCentricNet.host[12].net 	TEST_LengthLatestInterestArrivalPeriod 	0
scalar DataCentricNet.host[12].net 	ignoreRatio 	0.59712230215827
scalar DataCentricNet.host[13].net 	NumberOfNeighbours 	3
scalar DataCentricNet.host[13].net 	TotalNeighborLqi 	355
scalar DataCentricNet.host[13].net 	AverageNeighborLqi 	118.33333333333
scalar DataCentricNet.host[13].net 	MaxNeighborLqi 	161
scalar DataCentricNet.host[13].net 	MinNeighborLqi 	58
scalar DataCentricNet.host[13].net 	TEST_LengthLatestInterestArrivalPeriod 	0
scalar DataCentricNet.host[13].net 	ignoreRatio 	0.25
scalar DataCentricNet.host[14].net 	NumberOfNeighbours 	3
scalar DataCentricNet.host[14].net 	TotalNeighborLqi 	314
scalar DataCentricNet.host[14].net 	AverageNeighborLqi 	104.66666666667
scalar DataCentricNet.host[14].net 	MaxNeighborLqi 	151
scalar DataCentricNet.host[14].net 	MinNeighborLqi 	58
scalar DataCentricNet.host[14].net 	TEST_LengthLatestInterestArrivalPeriod 	0
scalar DataCentricNet.host[14].net 	ignoreRatio 	0.38888888888889
scalar DataCentricNet.host[15].net 	NumberOfNeighbours 	8
scalar DataCentricNet.host[15].net 	TotalNeighborLqi 	823
scalar DataCentricNet.host[15].net 	AverageNeighborLqi 	102.875
scalar DataCentricNet.host[15].net 	MaxNeighborLqi 	156
scalar DataCentricNet.host[15].net 	MinNeighborLqi 	64
scalar DataCentricNet.host[15].net 	TEST_LengthLatestInterestArrivalPeriod 	0
scalar DataCentricNet.host[15].net 	ignoreRatio 	0.60079051383399
scalar DataCentricNet.host[16].net 	NumberOfNeighbours 	10
scalar DataCentricNet.host[16].net 	TotalNeighborLqi 	1284
scalar DataCentricNet.host[16].net 	AverageNeighborLqi 	128.4
scalar DataCentricNet.host[16].net 	MaxNeighborLqi 	166
scalar DataCentricNet.host[16].net 	MinNeighborLqi 	85
scalar DataCentricNet.host[16].net 	TEST_LengthLatestInterestArrivalPeriod 	0
scalar DataCentricNet.host[16].net 	ignoreRatio 	0.57400722021661
scalar DataCentricNet.host[17].net 	NumberOfNeighbours 	6
scalar DataCentricNet.host[17].net 	TotalNeighborLqi 	777
scalar DataCentricNet.host[17].net 	AverageNeighborLqi 	129.5
scalar DataCentricNet.host[17].net 	MaxNeighborLqi 	166
scalar DataCentricNet.host[17].net 	MinNeighborLqi 	58
scalar DataCentricNet.host[17].net 	TEST_LengthLatestInterestArrivalPeriod 	0
scalar DataCentricNet.host[17].net 	ignoreRatio 	0.1
scalar DataCentricNet.host[18].net 	NumberOfNeighbours 	2
scalar DataCentricNet.host[18].net 	TotalNeighborLqi 	138
scalar DataCentricNet.host[18].net 	AverageNeighborLqi 	69
scalar DataCentricNet.host[18].net 	MaxNeighborLqi 	80
scalar DataCentricNet.host[18].net 	MinNeighborLqi 	58
scalar DataCentricNet.host[18].net 	TEST_LengthLatestInterestArrivalPeriod 	0
scalar DataCentricNet.host[18].net 	ignoreRatio 	0.61728395061728
scalar DataCentricNet.host[19].net 	NumberOfNeighbours 	6
scalar DataCentricNet.host[19].net 	TotalNeighborLqi 	688
scalar DataCentricNet.host[19].net 	AverageNeighborLqi 	114.66666666667
scalar DataCentricNet.host[19].net 	MaxNeighborLqi 	169
scalar DataCentricNet.host[19].net 	MinNeighborLqi 	13
scalar DataCentricNet.host[19].net 	TEST_LengthLatestInterestArrivalPeriod 	0
scalar DataCentricNet.host[19].net 	ignoreRatio 	0.70886075949367
scalar DataCentricNet.host[20].net 	NumberOfNeighbours 	3
scalar DataCentricNet.host[20].net 	TotalNeighborLqi 	414
scalar DataCentricNet.host[20].net 	AverageNeighborLqi 	138
scalar DataCentricNet.host[20].net 	MaxNeighborLqi 	153
scalar DataCentricNet.host[20].net 	MinNeighborLqi 	123
scalar DataCentricNet.host[20].net 	TEST_LengthLatestInterestArrivalPeriod 	0
scalar DataCentricNet.host[20].net 	ignoreRatio 	0.66818181818182
scalar DataCentricNet.host[21].net 	NumberOfNeighbours 	2
scalar DataCentricNet.host[21].net 	TotalNeighborLqi 	315
scalar DataCentricNet.host[21].net 	AverageNeighborLqi 	157.5
scalar DataCentricNet.host[21].net 	MaxNeighborLqi 	169
scalar DataCentricNet.host[21].net 	MinNeighborLqi 	146
scalar DataCentricNet.host[21].net 	TEST_LengthLatestInterestArrivalPeriod 	0
scalar DataCentricNet.host[21].net 	ignoreRatio 	0.73563218390805
scalar DataCentricNet.host[22].net 	NumberOfNeighbours 	5
scalar DataCentricNet.host[22].net 	TotalNeighborLqi 	559
scalar DataCentricNet.host[22].net 	AverageNeighborLqi 	111.8
scalar DataCentricNet.host[22].net 	MaxNeighborLqi 	159
scalar DataCentricNet.host[22].net 	MinNeighborLqi 	85
scalar DataCentricNet.host[22].net 	TEST_LengthLatestInterestArrivalPeriod 	0
scalar DataCentricNet.host[22].net 	ignoreRatio 	0.64189189189189
scalar DataCentricNet.host[23].net 	NumberOfNeighbours 	11
scalar DataCentricNet.host[23].net 	TotalNeighborLqi 	1427
scalar DataCentricNet.host[23].net 	AverageNeighborLqi 	129.72727272727
scalar DataCentricNet.host[23].net 	MaxNeighborLqi 	219
scalar DataCentricNet.host[23].net 	MinNeighborLqi 	13
scalar DataCentricNet.host[23].net 	TEST_LengthLatestInterestArrivalPeriod 	0
scalar DataCentricNet.host[23].net 	ignoreRatio 	0.49760765550239
scalar DataCentricNet.host[24].net 	NumberOfNeighbours 	7
scalar DataCentricNet.host[24].net 	TotalNeighborLqi 	909
scalar DataCentricNet.host[24].net 	AverageNeighborLqi 	129.85714285714
scalar DataCentricNet.host[24].net 	MaxNeighborLqi 	156
scalar DataCentricNet.host[24].net 	MinNeighborLqi 	62
scalar DataCentricNet.host[24].net 	TEST_LengthLatestInterestArrivalPeriod 	0
scalar DataCentricNet.host[24].net 	ignoreRatio 	0.53879310344828
scalar DataCentricNet.host[25].net 	NumberOfNeighbours 	2
scalar DataCentricNet.host[25].net 	TotalNeighborLqi 	198
scalar DataCentricNet.host[25].net 	AverageNeighborLqi 	99
scalar DataCentricNet.host[25].net 	MaxNeighborLqi 	118
scalar DataCentricNet.host[25].net 	MinNeighborLqi 	80
scalar DataCentricNet.host[25].net 	TEST_LengthLatestInterestArrivalPeriod 	0
scalar DataCentricNet.host[25].net 	ignoreRatio 	0.54700854700855
scalar DataCentricNet.host[26].net 	NumberOfNeighbours 	5
scalar DataCentricNet.host[26].net 	TotalNeighborLqi 	723
scalar DataCentricNet.host[26].net 	AverageNeighborLqi 	144.6
scalar DataCentricNet.host[26].net 	MaxNeighborLqi 	161
scalar DataCentricNet.host[26].net 	MinNeighborLqi 	133
scalar DataCentricNet.host[26].net 	TEST_LengthLatestInterestArrivalPeriod 	0
scalar DataCentricNet.host[26].net 	ignoreRatio 	0.55230125523013
scalar DataCentricNet.host[27].net 	NumberOfNeighbours 	5
scalar DataCentricNet.host[27].net 	TotalNeighborLqi 	740
scalar DataCentricNet.host[27].net 	AverageNeighborLqi 	148
scalar DataCentricNet.host[27].net 	MaxNeighborLqi 	159
scalar DataCentricNet.host[27].net 	MinNeighborLqi 	131
scalar DataCentricNet.host[27].net 	TEST_LengthLatestInterestArrivalPeriod 	0
scalar DataCentricNet.host[27].net 	ignoreRatio 	0.64606741573034
scalar DataCentricNet.host[28].net 	NumberOfNeighbours 	1
scalar DataCentricNet.host[28].net 	TotalNeighborLqi 	80
scalar DataCentricNet.host[28].net 	AverageNeighborLqi 	80
scalar DataCentricNet.host[28].net 	MaxNeighborLqi 	80
scalar DataCentricNet.host[28].net 	MinNeighborLqi 	80
scalar DataCentricNet.host[28].net 	TEST_LengthLatestInterestArrivalPeriod 	0
scalar DataCentricNet.host[28].net 	ignoreRatio 	0.66666666666667
scalar DataCentricNet.host[29].net 	NumberOfNeighbours 	4
scalar DataCentricNet.host[29].net 	TotalNeighborLqi 	308
scalar DataCentricNet.host[29].net 	AverageNeighborLqi 	77
scalar DataCentricNet.host[29].net 	MaxNeighborLqi 	143
scalar DataCentricNet.host[29].net 	MinNeighborLqi 	6
scalar DataCentricNet.host[29].net 	TEST_LengthLatestInterestArrivalPeriod 	0
scalar DataCentricNet.host[29].net 	ignoreRatio 	0.72413793103448
scalar DataCentricNet.host[30].net 	NumberOfNeighbours 	5
scalar DataCentricNet.host[30].net 	TotalNeighborLqi 	525
scalar DataCentricNet.host[30].net 	AverageNeighborLqi 	105
scalar DataCentricNet.host[30].net 	MaxNeighborLqi 	153
scalar DataCentricNet.host[30].net 	MinNeighborLqi 	72
scalar DataCentricNet.host[30].net 	TEST_LengthLatestInterestArrivalPeriod 	0
scalar DataCentricNet.host[30].net 	ignoreRatio 	0.68717948717949
scalar DataCentricNet.host[31].net 	NumberOfNeighbours 	7
scalar DataCentricNet.host[31].net 	TotalNeighborLqi 	901
scalar DataCentricNet.host[31].net 	AverageNeighborLqi 	128.71428571429
scalar DataCentricNet.host[31].net 	MaxNeighborLqi 	159
scalar DataCentricNet.host[31].net 	MinNeighborLqi 	80
scalar DataCentricNet.host[31].net 	TEST_LengthLatestInterestArrivalPeriod 	0
scalar DataCentricNet.host[31].net 	ignoreRatio 	0.69953051643192
scalar DataCentricNet.host[32].net 	NumberOfNeighbours 	1
scalar DataCentricNet.host[32].net 	TotalNeighborLqi 	161
scalar DataCentricNet.host[32].net 	AverageNeighborLqi 	161
scalar DataCentricNet.host[32].net 	MaxNeighborLqi 	161
scalar DataCentricNet.host[32].net 	MinNeighborLqi 	161
scalar DataCentricNet.host[32].net 	TEST_LengthLatestInterestArrivalPeriod 	0
scalar DataCentricNet.host[32].net 	ignoreRatio 	0.68478260869565
scalar DataCentricNet.host[33].net 	NumberOfNeighbours 	7
scalar DataCentricNet.host[33].net 	TotalNeighborLqi 	770
scalar DataCentricNet.host[33].net 	AverageNeighborLqi 	110
scalar DataCentricNet.host[33].net 	MaxNeighborLqi 	159
scalar DataCentricNet.host[33].net 	MinNeighborLqi 	1
scalar DataCentricNet.host[33].net 	TEST_LengthLatestInterestArrivalPeriod 	0
scalar DataCentricNet.host[33].net 	ignoreRatio 	0.53883495145631
scalar DataCentricNet.host[34].net 	NumberOfNeighbours 	9
scalar DataCentricNet.host[34].net 	TotalNeighborLqi 	995
scalar DataCentricNet.host[34].net 	AverageNeighborLqi 	110.55555555556
scalar DataCentricNet.host[34].net 	MaxNeighborLqi 	169
scalar DataCentricNet.host[34].net 	MinNeighborLqi 	1
scalar DataCentricNet.host[34].net 	TEST_LengthLatestInterestArrivalPeriod 	0
scalar DataCentricNet.host[34].net 	ignoreRatio 	0.44888888888889
scalar DataCentricNet.host[35].net 	NumberOfNeighbours 	4
scalar DataCentricNet.host[35].net 	TotalNeighborLqi 	571
scalar DataCentricNet.host[35].net 	AverageNeighborLqi 	142.75
scalar DataCentricNet.host[35].net 	MaxNeighborLqi 	151
scalar DataCentricNet.host[35].net 	MinNeighborLqi 	131
scalar DataCentricNet.host[35].net 	TEST_LengthLatestInterestArrivalPeriod 	0
scalar DataCentricNet.host[35].net 	ignoreRatio 	0.49767441860465
scalar DataCentricNet.host[36].net 	NumberOfNeighbours 	7
scalar DataCentricNet.host[36].net 	TotalNeighborLqi 	837
scalar DataCentricNet.host[36].net 	AverageNeighborLqi 	119.57142857143
scalar DataCentricNet.host[36].net 	MaxNeighborLqi 	166
scalar DataCentricNet.host[36].net 	MinNeighborLqi 	18
scalar DataCentricNet.host[36].net 	TEST_LengthLatestInterestArrivalPeriod 	0
scalar DataCentricNet.host[36].net 	ignoreRatio 	0.55882352941176
scalar DataCentricNet.host[37].net 	NumberOfNeighbours 	7
scalar DataCentricNet.host[37].net 	TotalNeighborLqi 	839
scalar DataCentricNet.host[37].net 	AverageNeighborLqi 	119.85714285714
scalar DataCentricNet.host[37].net 	MaxNeighborLqi 	166
scalar DataCentricNet.host[37].net 	MinNeighborLqi 	11
scalar DataCentricNet.host[37].net 	TEST_LengthLatestInterestArrivalPeriod 	0
scalar DataCentricNet.host[37].net 	ignoreRatio 	0.66176470588235
scalar DataCentricNet.host[38].net 	NumberOfNeighbours 	10
scalar DataCentricNet.host[38].net 	TotalNeighborLqi 	1218
scalar DataCentricNet.host[38].net 	AverageNeighborLqi 	121.8
scalar DataCentricNet.host[38].net 	MaxNeighborLqi 	164
scalar DataCentricNet.host[38].net 	MinNeighborLqi 	54
scalar DataCentricNet.host[38].net 	TEST_LengthLatestInterestArrivalPeriod 	0
scalar DataCentricNet.host[38].net 	ignoreRatio 	0.60262008733624
scalar DataCentricNet.host[39].net 	NumberOfNeighbours 	4
scalar DataCentricNet.host[39].net 	TotalNeighborLqi 	438
scalar DataCentricNet.host[39].net 	AverageNeighborLqi 	109.5
scalar DataCentricNet.host[39].net 	MaxNeighborLqi 	159
scalar DataCentricNet.host[39].net 	MinNeighborLqi 	1
scalar DataCentricNet.host[39].net 	TEST_LengthLatestInterestArrivalPeriod 	0
scalar DataCentricNet.host[39].net 	ignoreRatio 	0.55357142857143
scalar DataCentricNet.host[40].net 	NumberOfNeighbours 	7
scalar DataCentricNet.host[40].net 	TotalNeighborLqi 	1036
scalar DataCentricNet.host[40].net 	AverageNeighborLqi 	148
scalar DataCentricNet.host[40].net 	MaxNeighborLqi 	166
scalar DataCentricNet.host[40].net 	MinNeighborLqi 	110
scalar DataCentricNet.host[40].net 	TEST_LengthLatestInterestArrivalPeriod 	0
scalar DataCentricNet.host[40].net 	ignoreRatio 	0.42533936651584
scalar DataCentricNet.host[41].net 	NumberOfNeighbours 	9
scalar DataCentricNet.host[41].net 	TotalNeighborLqi 	803
scalar DataCentricNet.host[41].net 	AverageNeighborLqi 	89.222222222222
scalar DataCentricNet.host[41].net 	MaxNeighborLqi 	138
scalar DataCentricNet.host[41].net 	MinNeighborLqi 	1
scalar DataCentricNet.host[41].net 	TEST_LengthLatestInterestArrivalPeriod 	0
scalar DataCentricNet.host[41].net 	ignoreRatio 	0.39183673469388
scalar DataCentricNet.host[42].net 	NumberOfNeighbours 	5
scalar DataCentricNet.host[42].net 	TotalNeighborLqi 	667
scalar DataCentricNet.host[42].net 	AverageNeighborLqi 	133.4
scalar DataCentricNet.host[42].net 	MaxNeighborLqi 	156
scalar DataCentricNet.host[42].net 	MinNeighborLqi 	110
scalar DataCentricNet.host[42].net 	TEST_LengthLatestInterestArrivalPeriod 	0
scalar DataCentricNet.host[42].net 	ignoreRatio 	0.55263157894737
scalar DataCentricNet.host[43].net 	NumberOfNeighbours 	2
scalar DataCentricNet.host[43].net 	TotalNeighborLqi 	154
scalar DataCentricNet.host[43].net 	AverageNeighborLqi 	77
scalar DataCentricNet.host[43].net 	MaxNeighborLqi 	153
scalar DataCentricNet.host[43].net 	MinNeighborLqi 	1
scalar DataCentricNet.host[43].net 	TEST_LengthLatestInterestArrivalPeriod 	0
scalar DataCentricNet.host[43].net 	ignoreRatio 	0.60629921259843
scalar DataCentricNet.host[44].net 	NumberOfNeighbours 	5
scalar DataCentricNet.host[44].net 	TotalNeighborLqi 	653
scalar DataCentricNet.host[44].net 	AverageNeighborLqi 	130.6
scalar DataCentricNet.host[44].net 	MaxNeighborLqi 	164
scalar DataCentricNet.host[44].net 	MinNeighborLqi 	46
scalar DataCentricNet.host[44].net 	TEST_LengthLatestInterestArrivalPeriod 	0
scalar DataCentricNet.host[44].net 	ignoreRatio 	0.75980392156863
scalar DataCentricNet.host[45].net 	NumberOfNeighbours 	6
scalar DataCentricNet.host[45].net 	TotalNeighborLqi 	593
scalar DataCentricNet.host[45].net 	AverageNeighborLqi 	98.833333333333
scalar DataCentricNet.host[45].net 	MaxNeighborLqi 	146
scalar DataCentricNet.host[45].net 	MinNeighborLqi 	29
scalar DataCentricNet.host[45].net 	TEST_LengthLatestInterestArrivalPeriod 	0
scalar DataCentricNet.host[45].net 	ignoreRatio 	0.51304347826087
scalar DataCentricNet.host[46].net 	NumberOfNeighbours 	3
scalar DataCentricNet.host[46].net 	TotalNeighborLqi 	366
scalar DataCentricNet.host[46].net 	AverageNeighborLqi 	122
scalar DataCentricNet.host[46].net 	MaxNeighborLqi 	159
scalar DataCentricNet.host[46].net 	MinNeighborLqi 	51
scalar DataCentricNet.host[46].net 	TEST_LengthLatestInterestArrivalPeriod 	0
scalar DataCentricNet.host[46].net 	ignoreRatio 	0.78453038674033
scalar DataCentricNet.host[47].net 	NumberOfNeighbours 	9
scalar DataCentricNet.host[47].net 	TotalNeighborLqi 	1173
scalar DataCentricNet.host[47].net 	AverageNeighborLqi 	130.33333333333
scalar DataCentricNet.host[47].net 	MaxNeighborLqi 	166
scalar DataCentricNet.host[47].net 	MinNeighborLqi 	44
scalar DataCentricNet.host[47].net 	TEST_LengthLatestInterestArrivalPeriod 	0
scalar DataCentricNet.host[47].net 	ignoreRatio 	0.63235294117647
scalar DataCentricNet.host[48].net 	NumberOfNeighbours 	6
scalar DataCentricNet.host[48].net 	TotalNeighborLqi 	842
scalar DataCentricNet.host[48].net 	AverageNeighborLqi 	140.33333333333
scalar DataCentricNet.host[48].net 	MaxNeighborLqi 	164
scalar DataCentricNet.host[48].net 	MinNeighborLqi 	120
scalar DataCentricNet.host[48].net 	TEST_LengthLatestInterestArrivalPeriod 	0
scalar DataCentricNet.host[48].net 	ignoreRatio 	0.68979591836735
scalar DataCentricNet.host[49].net 	NumberOfNeighbours 	7
scalar DataCentricNet.host[49].net 	TotalNeighborLqi 	694
scalar DataCentricNet.host[49].net 	AverageNeighborLqi 	99.142857142857
scalar DataCentricNet.host[49].net 	MaxNeighborLqi 	164
scalar DataCentricNet.host[49].net 	MinNeighborLqi 	1
scalar DataCentricNet.host[49].net 	TEST_LengthLatestInterestArrivalPeriod 	0
scalar DataCentricNet.host[49].net 	ignoreRatio 	0.5632183908046
scalar DataCentricNet.host[50].net 	NumberOfNeighbours 	9
scalar DataCentricNet.host[50].net 	TotalNeighborLqi 	850
scalar DataCentricNet.host[50].net 	AverageNeighborLqi 	94.444444444444
scalar DataCentricNet.host[50].net 	MaxNeighborLqi 	156
scalar DataCentricNet.host[50].net 	MinNeighborLqi 	46
scalar DataCentricNet.host[50].net 	TEST_LengthLatestInterestArrivalPeriod 	0
scalar DataCentricNet.host[50].net 	ignoreRatio 	0.47876447876448
scalar DataCentricNet.host[51].net 	NumberOfNeighbours 	6
scalar DataCentricNet.host[51].net 	TotalNeighborLqi 	888
scalar DataCentricNet.host[51].net 	AverageNeighborLqi 	148
scalar DataCentricNet.host[51].net 	MaxNeighborLqi 	215
scalar DataCentricNet.host[51].net 	MinNeighborLqi 	64
scalar DataCentricNet.host[51].net 	TEST_LengthLatestInterestArrivalPeriod 	0
scalar DataCentricNet.host[51].net 	ignoreRatio 	0.67111111111111
scalar DataCentricNet.host[52].net 	NumberOfNeighbours 	7
scalar DataCentricNet.host[52].net 	TotalNeighborLqi 	807
scalar DataCentricNet.host[52].net 	AverageNeighborLqi 	115.28571428571
scalar DataCentricNet.host[52].net 	MaxNeighborLqi 	164
scalar DataCentricNet.host[52].net 	MinNeighborLqi 	41
scalar DataCentricNet.host[52].net 	TEST_LengthLatestInterestArrivalPeriod 	0
scalar DataCentricNet.host[52].net 	ignoreRatio 	0.54502369668246
scalar DataCentricNet.host[53].net 	NumberOfNeighbours 	2
scalar DataCentricNet.host[53].net 	TotalNeighborLqi 	241
scalar DataCentricNet.host[53].net 	AverageNeighborLqi 	120.5
scalar DataCentricNet.host[53].net 	MaxNeighborLqi 	156
scalar DataCentricNet.host[53].net 	MinNeighborLqi 	85
scalar DataCentricNet.host[53].net 	TEST_LengthLatestInterestArrivalPeriod 	0
scalar DataCentricNet.host[53].net 	ignoreRatio 	0.74436090225564
scalar DataCentricNet.host[54].net 	NumberOfNeighbours 	7
scalar DataCentricNet.host[54].net 	TotalNeighborLqi 	864
scalar DataCentricNet.host[54].net 	AverageNeighborLqi 	123.42857142857
scalar DataCentricNet.host[54].net 	MaxNeighborLqi 	164
scalar DataCentricNet.host[54].net 	MinNeighborLqi 	72
scalar DataCentricNet.host[54].net 	TEST_LengthLatestInterestArrivalPeriod 	0
scalar DataCentricNet.host[54].net 	ignoreRatio 	0.59895833333333
scalar DataCentricNet.host[55].net 	NumberOfNeighbours 	9
scalar DataCentricNet.host[55].net 	TotalNeighborLqi 	881
scalar DataCentricNet.host[55].net 	AverageNeighborLqi 	97.888888888889
scalar DataCentricNet.host[55].net 	MaxNeighborLqi 	148
scalar DataCentricNet.host[55].net 	MinNeighborLqi 	1
scalar DataCentricNet.host[55].net 	TEST_LengthLatestInterestArrivalPeriod 	0
scalar DataCentricNet.host[55].net 	ignoreRatio 	0.37037037037037
scalar DataCentricNet.host[56].net 	NumberOfNeighbours 	4
scalar DataCentricNet.host[56].net 	TotalNeighborLqi 	553
scalar DataCentricNet.host[56].net 	AverageNeighborLqi 	138.25
scalar DataCentricNet.host[56].net 	MaxNeighborLqi 	156
scalar DataCentricNet.host[56].net 	MinNeighborLqi 	108
scalar DataCentricNet.host[56].net 	TEST_LengthLatestInterestArrivalPeriod 	0
scalar DataCentricNet.host[56].net 	ignoreRatio 	0.64197530864198
scalar DataCentricNet.host[57].net 	NumberOfNeighbours 	6
scalar DataCentricNet.host[57].net 	TotalNeighborLqi 	605
scalar DataCentricNet.host[57].net 	AverageNeighborLqi 	100.83333333333
scalar DataCentricNet.host[57].net 	MaxNeighborLqi 	166
scalar DataCentricNet.host[57].net 	MinNeighborLqi 	26
scalar DataCentricNet.host[57].net 	TEST_LengthLatestInterestArrivalPeriod 	0
scalar DataCentricNet.host[57].net 	ignoreRatio 	0.64324324324324
scalar DataCentricNet.host[58].net 	NumberOfNeighbours 	6
scalar DataCentricNet.host[58].net 	TotalNeighborLqi 	628
scalar DataCentricNet.host[58].net 	AverageNeighborLqi 	104.66666666667
scalar DataCentricNet.host[58].net 	MaxNeighborLqi 	169
scalar DataCentricNet.host[58].net 	MinNeighborLqi 	1
scalar DataCentricNet.host[58].net 	TEST_LengthLatestInterestArrivalPeriod 	0
scalar DataCentricNet.host[58].net 	ignoreRatio 	0.61256544502618
scalar DataCentricNet.host[59].net 	NumberOfNeighbours 	6
scalar DataCentricNet.host[59].net 	TotalNeighborLqi 	567
scalar DataCentricNet.host[59].net 	AverageNeighborLqi 	94.5
scalar DataCentricNet.host[59].net 	MaxNeighborLqi 	159
scalar DataCentricNet.host[59].net 	MinNeighborLqi 	1
scalar DataCentricNet.host[59].net 	TEST_LengthLatestInterestArrivalPeriod 	0
scalar DataCentricNet.host[59].net 	ignoreRatio 	0.57589285714286
scalar DataCentricNet.host[60].net 	NumberOfNeighbours 	5
scalar DataCentricNet.host[60].net 	TotalNeighborLqi 	574
scalar DataCentricNet.host[60].net 	AverageNeighborLqi 	114.8
scalar DataCentricNet.host[60].net 	MaxNeighborLqi 	169
scalar DataCentricNet.host[60].net 	MinNeighborLqi 	1
scalar DataCentricNet.host[60].net 	TEST_LengthLatestInterestArrivalPeriod 	0
scalar DataCentricNet.host[60].net 	ignoreRatio 	0.57142857142857
scalar DataCentricNet.host[61].net 	NumberOfNeighbours 	4
scalar DataCentricNet.host[61].net 	TotalNeighborLqi 	578
scalar DataCentricNet.host[61].net 	AverageNeighborLqi 	144.5
scalar DataCentricNet.host[61].net 	MaxNeighborLqi 	166
scalar DataCentricNet.host[61].net 	MinNeighborLqi 	108
scalar DataCentricNet.host[61].net 	TEST_LengthLatestInterestArrivalPeriod 	0
scalar DataCentricNet.host[61].net 	ignoreRatio 	0.63959390862944
scalar DataCentricNet.host[62].net 	NumberOfNeighbours 	4
scalar DataCentricNet.host[62].net 	TotalNeighborLqi 	438
scalar DataCentricNet.host[62].net 	AverageNeighborLqi 	109.5
scalar DataCentricNet.host[62].net 	MaxNeighborLqi 	156
scalar DataCentricNet.host[62].net 	MinNeighborLqi 	51
scalar DataCentricNet.host[62].net 	TEST_LengthLatestInterestArrivalPeriod 	0
scalar DataCentricNet.host[62].net 	ignoreRatio 	0.70114942528736
scalar DataCentricNet.host[63].net 	NumberOfNeighbours 	4
scalar DataCentricNet.host[63].net 	TotalNeighborLqi 	416
scalar DataCentricNet.host[63].net 	AverageNeighborLqi 	104
scalar DataCentricNet.host[63].net 	MaxNeighborLqi 	151
scalar DataCentricNet.host[63].net 	MinNeighborLqi 	1
scalar DataCentricNet.host[63].net 	TEST_LengthLatestInterestArrivalPeriod 	0
scalar DataCentricNet.host[63].net 	ignoreRatio 	0.60119047619048
scalar DataCentricNet.host[64].net 	NumberOfNeighbours 	9
scalar DataCentricNet.host[64].net 	TotalNeighborLqi 	984
scalar DataCentricNet.host[64].net 	AverageNeighborLqi 	109.33333333333
scalar DataCentricNet.host[64].net 	MaxNeighborLqi 	169
scalar DataCentricNet.host[64].net 	MinNeighborLqi 	1
scalar DataCentricNet.host[64].net 	TEST_LengthLatestInterestArrivalPeriod 	0
scalar DataCentricNet.host[64].net 	ignoreRatio 	0.51750972762646
scalar DataCentricNet.host[65].net 	NumberOfNeighbours 	1
scalar DataCentricNet.host[65].net 	TotalNeighborLqi 	87
scalar DataCentricNet.host[65].net 	AverageNeighborLqi 	87
scalar DataCentricNet.host[65].net 	MaxNeighborLqi 	87
scalar DataCentricNet.host[65].net 	MinNeighborLqi 	87
scalar DataCentricNet.host[65].net 	TEST_LengthLatestInterestArrivalPeriod 	0
scalar DataCentricNet.host[65].net 	ignoreRatio 	0.85915492957746
scalar DataCentricNet.host[66].net 	NumberOfNeighbours 	8
scalar DataCentricNet.host[66].net 	TotalNeighborLqi 	940
scalar DataCentricNet.host[66].net 	AverageNeighborLqi 	117.5
scalar DataCentricNet.host[66].net 	MaxNeighborLqi 	164
scalar DataCentricNet.host[66].net 	MinNeighborLqi 	18
scalar DataCentricNet.host[66].net 	TEST_LengthLatestInterestArrivalPeriod 	0
scalar DataCentricNet.host[66].net 	ignoreRatio 	0.52972972972973
scalar DataCentricNet.host[67].net 	NumberOfNeighbours 	3
scalar DataCentricNet.host[67].net 	TotalNeighborLqi 	269
scalar DataCentricNet.host[67].net 	AverageNeighborLqi 	89.666666666667
scalar DataCentricNet.host[67].net 	MaxNeighborLqi 	128
scalar DataCentricNet.host[67].net 	MinNeighborLqi 	59
scalar DataCentricNet.host[67].net 	TEST_LengthLatestInterestArrivalPeriod 	0
scalar DataCentricNet.host[67].net 	ignoreRatio 	0.70886075949367
scalar DataCentricNet.host[68].net 	NumberOfNeighbours 	6
scalar DataCentricNet.host[68].net 	TotalNeighborLqi 	676
scalar DataCentricNet.host[68].net 	AverageNeighborLqi 	112.66666666667
scalar DataCentricNet.host[68].net 	MaxNeighborLqi 	169
scalar DataCentricNet.host[68].net 	MinNeighborLqi 	44
scalar DataCentricNet.host[68].net 	TEST_LengthLatestInterestArrivalPeriod 	0
scalar DataCentricNet.host[68].net 	ignoreRatio 	0.64130434782609
scalar DataCentricNet.host[69].net 	NumberOfNeighbours 	3
scalar DataCentricNet.host[69].net 	TotalNeighborLqi 	229
scalar DataCentricNet.host[69].net 	AverageNeighborLqi 	76.333333333333
scalar DataCentricNet.host[69].net 	MaxNeighborLqi 	100
scalar DataCentricNet.host[69].net 	MinNeighborLqi 	44
scalar DataCentricNet.host[69].net 	TEST_LengthLatestInterestArrivalPeriod 	0
scalar DataCentricNet.host[69].net 	ignoreRatio 	0.67441860465116
scalar DataCentricNet.host[70].net 	NumberOfNeighbours 	4
scalar DataCentricNet.host[70].net 	TotalNeighborLqi 	301
scalar DataCentricNet.host[70].net 	AverageNeighborLqi 	75.25
scalar DataCentricNet.host[70].net 	MaxNeighborLqi 	151
scalar DataCentricNet.host[70].net 	MinNeighborLqi 	29
scalar DataCentricNet.host[70].net 	TEST_LengthLatestInterestArrivalPeriod 	0
scalar DataCentricNet.host[70].net 	ignoreRatio 	0.69718309859155
scalar DataCentricNet.host[71].net 	NumberOfNeighbours 	4
scalar DataCentricNet.host[71].net 	TotalNeighborLqi 	410
scalar DataCentricNet.host[71].net 	AverageNeighborLqi 	102.5
scalar DataCentricNet.host[71].net 	MaxNeighborLqi 	138
scalar DataCentricNet.host[71].net 	MinNeighborLqi 	21
scalar DataCentricNet.host[71].net 	TEST_LengthLatestInterestArrivalPeriod 	0
scalar DataCentricNet.host[71].net 	ignoreRatio 	0.44444444444444
scalar DataCentricNet.host[72].net 	NumberOfNeighbours 	6
scalar DataCentricNet.host[72].net 	TotalNeighborLqi 	612
scalar DataCentricNet.host[72].net 	AverageNeighborLqi 	102
scalar DataCentricNet.host[72].net 	MaxNeighborLqi 	166
scalar DataCentricNet.host[72].net 	MinNeighborLqi 	64
scalar DataCentricNet.host[72].net 	TEST_LengthLatestInterestArrivalPeriod 	0
scalar DataCentricNet.host[72].net 	ignoreRatio 	0.64948453608247
scalar DataCentricNet.host[73].net 	NumberOfNeighbours 	6
scalar DataCentricNet.host[73].net 	TotalNeighborLqi 	756
scalar DataCentricNet.host[73].net 	AverageNeighborLqi 	126
scalar DataCentricNet.host[73].net 	MaxNeighborLqi 	164
scalar DataCentricNet.host[73].net 	MinNeighborLqi 	57
scalar DataCentricNet.host[73].net 	TEST_LengthLatestInterestArrivalPeriod 	0
scalar DataCentricNet.host[73].net 	ignoreRatio 	0.55652173913043
scalar DataCentricNet.host[74].net 	NumberOfNeighbours 	6
scalar DataCentricNet.host[74].net 	TotalNeighborLqi 	683
scalar DataCentricNet.host[74].net 	AverageNeighborLqi 	113.83333333333
scalar DataCentricNet.host[74].net 	MaxNeighborLqi 	164
scalar DataCentricNet.host[74].net 	MinNeighborLqi 	6
scalar DataCentricNet.host[74].net 	TEST_LengthLatestInterestArrivalPeriod 	0
scalar DataCentricNet.host[74].net 	ignoreRatio 	0.55833333333333
scalar DataCentricNet.host[75].net 	NumberOfNeighbours 	10
scalar DataCentricNet.host[75].net 	TotalNeighborLqi 	1151
scalar DataCentricNet.host[75].net 	AverageNeighborLqi 	115.1
scalar DataCentricNet.host[75].net 	MaxNeighborLqi 	169
scalar DataCentricNet.host[75].net 	MinNeighborLqi 	11
scalar DataCentricNet.host[75].net 	TEST_LengthLatestInterestArrivalPeriod 	0
scalar DataCentricNet.host[75].net 	ignoreRatio 	0.5765306122449
scalar DataCentricNet.host[76].net 	NumberOfNeighbours 	9
scalar DataCentricNet.host[76].net 	TotalNeighborLqi 	925
scalar DataCentricNet.host[76].net 	AverageNeighborLqi 	102.77777777778
scalar DataCentricNet.host[76].net 	MaxNeighborLqi 	159
scalar DataCentricNet.host[76].net 	MinNeighborLqi 	1
scalar DataCentricNet.host[76].net 	TEST_LengthLatestInterestArrivalPeriod 	0
scalar DataCentricNet.host[76].net 	ignoreRatio 	0.44313725490196
scalar DataCentricNet.host[77].net 	NumberOfNeighbours 	6
scalar DataCentricNet.host[77].net 	TotalNeighborLqi 	641
scalar DataCentricNet.host[77].net 	AverageNeighborLqi 	106.83333333333
scalar DataCentricNet.host[77].net 	MaxNeighborLqi 	156
scalar DataCentricNet.host[77].net 	MinNeighborLqi 	1
scalar DataCentricNet.host[77].net 	TEST_LengthLatestInterestArrivalPeriod 	0
scalar DataCentricNet.host[77].net 	ignoreRatio 	0.62032085561497
scalar DataCentricNet.host[78].net 	NumberOfNeighbours 	7
scalar DataCentricNet.host[78].net 	TotalNeighborLqi 	735
scalar DataCentricNet.host[78].net 	AverageNeighborLqi 	105
scalar DataCentricNet.host[78].net 	MaxNeighborLqi 	164
scalar DataCentricNet.host[78].net 	MinNeighborLqi 	34
scalar DataCentricNet.host[78].net 	TEST_LengthLatestInterestArrivalPeriod 	0
scalar DataCentricNet.host[78].net 	ignoreRatio 	0.64135021097046
scalar DataCentricNet.host[79].net 	NumberOfNeighbours 	6
scalar DataCentricNet.host[79].net 	TotalNeighborLqi 	751
scalar DataCentricNet.host[79].net 	AverageNeighborLqi 	125.16666666667
scalar DataCentricNet.host[79].net 	MaxNeighborLqi 	153
scalar DataCentricNet.host[79].net 	MinNeighborLqi 	82
scalar DataCentricNet.host[79].net 	TEST_LengthLatestInterestArrivalPeriod 	0
scalar DataCentricNet.host[79].net 	ignoreRatio 	0.58503401360544
scalar DataCentricNet.host[80].net 	NumberOfNeighbours 	6
scalar DataCentricNet.host[80].net 	TotalNeighborLqi 	800
scalar DataCentricNet.host[80].net 	AverageNeighborLqi 	133.33333333333
scalar DataCentricNet.host[80].net 	MaxNeighborLqi 	159
scalar DataCentricNet.host[80].net 	MinNeighborLqi 	116
scalar DataCentricNet.host[80].net 	TEST_LengthLatestInterestArrivalPeriod 	0
scalar DataCentricNet.host[80].net 	ignoreRatio 	0.35897435897436
scalar DataCentricNet.host[81].net 	NumberOfNeighbours 	11
scalar DataCentricNet.host[81].net 	TotalNeighborLqi 	1280
scalar DataCentricNet.host[81].net 	AverageNeighborLqi 	116.36363636364
scalar DataCentricNet.host[81].net 	MaxNeighborLqi 	169
scalar DataCentricNet.host[81].net 	MinNeighborLqi 	62
scalar DataCentricNet.host[81].net 	TEST_LengthLatestInterestArrivalPeriod 	0
scalar DataCentricNet.host[81].net 	ignoreRatio 	0.47328244274809
scalar DataCentricNet.host[82].net 	NumberOfNeighbours 	10
scalar DataCentricNet.host[82].net 	TotalNeighborLqi 	1342
scalar DataCentricNet.host[82].net 	AverageNeighborLqi 	134.2
scalar DataCentricNet.host[82].net 	MaxNeighborLqi 	166
scalar DataCentricNet.host[82].net 	MinNeighborLqi 	80
scalar DataCentricNet.host[82].net 	TEST_LengthLatestInterestArrivalPeriod 	0
scalar DataCentricNet.host[82].net 	ignoreRatio 	0.55050505050505
scalar DataCentricNet.host[83].net 	NumberOfNeighbours 	10
scalar DataCentricNet.host[83].net 	TotalNeighborLqi 	1281
scalar DataCentricNet.host[83].net 	AverageNeighborLqi 	128.1
scalar DataCentricNet.host[83].net 	MaxNeighborLqi 	159
scalar DataCentricNet.host[83].net 	MinNeighborLqi 	90
scalar DataCentricNet.host[83].net 	TEST_LengthLatestInterestArrivalPeriod 	0
scalar DataCentricNet.host[83].net 	ignoreRatio 	0.64186046511628
scalar DataCentricNet.host[84].net 	NumberOfNeighbours 	2
scalar DataCentricNet.host[84].net 	TotalNeighborLqi 	218
scalar DataCentricNet.host[84].net 	AverageNeighborLqi 	109
scalar DataCentricNet.host[84].net 	MaxNeighborLqi 	146
scalar DataCentricNet.host[84].net 	MinNeighborLqi 	72
scalar DataCentricNet.host[84].net 	TEST_LengthLatestInterestArrivalPeriod 	0
scalar DataCentricNet.host[84].net 	ignoreRatio 	0.67525773195876
scalar DataCentricNet.host[85].net 	NumberOfNeighbours 	6
scalar DataCentricNet.host[85].net 	TotalNeighborLqi 	554
scalar DataCentricNet.host[85].net 	AverageNeighborLqi 	92.333333333333
scalar DataCentricNet.host[85].net 	MaxNeighborLqi 	148
scalar DataCentricNet.host[85].net 	MinNeighborLqi 	34
scalar DataCentricNet.host[85].net 	TEST_LengthLatestInterestArrivalPeriod 	0
scalar DataCentricNet.host[85].net 	ignoreRatio 	0.63285024154589
scalar DataCentricNet.host[86].net 	NumberOfNeighbours 	3
scalar DataCentricNet.host[86].net 	TotalNeighborLqi 	274
scalar DataCentricNet.host[86].net 	AverageNeighborLqi 	91.333333333333
scalar DataCentricNet.host[86].net 	MaxNeighborLqi 	148
scalar DataCentricNet.host[86].net 	MinNeighborLqi 	1
scalar DataCentricNet.host[86].net 	TEST_LengthLatestInterestArrivalPeriod 	0
scalar DataCentricNet.host[86].net 	ignoreRatio 	0.6796875
scalar DataCentricNet.dataCentricNetworkMan 	DataArrivals 	156
scalar DataCentricNet.dataCentricNetworkMan 	PercentageArrivals 	100
scalar DataCentricNet.dataCentricNetworkMan 	DataFailures 	0
scalar DataCentricNet.dataCentricNetworkMan 	PercentageFailures 	0
scalar DataCentricNet.dataCentricNetworkMan 	MeanE2EDelay 	0.024359348121564
scalar DataCentricNet.dataCentricNetworkMan 	StdDevE2EDelay 	0.013289047121434
scalar DataCentricNet.dataCentricNetworkMan 	MaxE2EDelay 	0.071827953931
scalar DataCentricNet.dataCentricNetworkMan 	MinE2EDelay 	0.003590380909
scalar DataCentricNet.dataCentricNetworkMan 	numControlPackets 	966
scalar DataCentricNet.dataCentricNetworkMan 	MeanBPS 	0
scalar DataCentricNet.dataCentricNetworkMan 	StdDevBPS 	-1.#IND
scalar DataCentricNet.dataCentricNetworkMan 	MaxBPS 	0
scalar DataCentricNet.dataCentricNetworkMan 	MinBPS 	0
