version 2
run DataCentric_Experiment_1-51-20121204-14:35:21-3732
attr configname DataCentric_Experiment_1
attr datetime 20121204-14:35:21
attr experiment DataCentric_Experiment_1
attr inifile DataCentric_2.ini
attr iterationvars $numNodes=101
attr iterationvars2 "$numNodes=101, $repetition=0"
attr measurement $numNodes=101
attr network DataCentricNet
attr numNodes 101
attr processid 3732
attr repetition 0
attr replication #0
attr resultdir results
attr runnumber 51
attr seedset 51

scalar . 	numNodes 	101
scalar DataCentricNet.host[0].net 	NumberOfNeighbours 	7
scalar DataCentricNet.host[0].net 	TotalNeighborLqi 	717
scalar DataCentricNet.host[0].net 	AverageNeighborLqi 	102.42857142857
scalar DataCentricNet.host[0].net 	MaxNeighborLqi 	192
scalar DataCentricNet.host[0].net 	MinNeighborLqi 	0
scalar DataCentricNet.host[0].net 	TEST_LengthLatestInterestArrivalPeriod 	0
scalar DataCentricNet.host[0].net 	ignoreRatio 	0.47777777777778
scalar DataCentricNet.host[1].net 	NumberOfNeighbours 	11
scalar DataCentricNet.host[1].net 	TotalNeighborLqi 	1054
scalar DataCentricNet.host[1].net 	AverageNeighborLqi 	95.818181818182
scalar DataCentricNet.host[1].net 	MaxNeighborLqi 	161
scalar DataCentricNet.host[1].net 	MinNeighborLqi 	0
scalar DataCentricNet.host[1].net 	TEST_LengthLatestInterestArrivalPeriod 	0
scalar DataCentricNet.host[1].net 	ignoreRatio 	0.6309963099631
scalar DataCentricNet.host[2].net 	NumberOfNeighbours 	8
scalar DataCentricNet.host[2].net 	TotalNeighborLqi 	942
scalar DataCentricNet.host[2].net 	AverageNeighborLqi 	117.75
scalar DataCentricNet.host[2].net 	MaxNeighborLqi 	190
scalar DataCentricNet.host[2].net 	MinNeighborLqi 	0
scalar DataCentricNet.host[2].net 	TEST_LengthLatestInterestArrivalPeriod 	0
scalar DataCentricNet.host[2].net 	ignoreRatio 	0.59245283018868
scalar DataCentricNet.host[3].net 	NumberOfNeighbours 	12
scalar DataCentricNet.host[3].net 	TotalNeighborLqi 	1365
scalar DataCentricNet.host[3].net 	AverageNeighborLqi 	113.75
scalar DataCentricNet.host[3].net 	MaxNeighborLqi 	189
scalar DataCentricNet.host[3].net 	MinNeighborLqi 	0
scalar DataCentricNet.host[3].net 	TEST_LengthLatestInterestArrivalPeriod 	0
scalar DataCentricNet.host[3].net 	ignoreRatio 	0.61751152073733
scalar DataCentricNet.host[4].net 	NumberOfNeighbours 	7
scalar DataCentricNet.host[4].net 	TotalNeighborLqi 	783
scalar DataCentricNet.host[4].net 	AverageNeighborLqi 	111.85714285714
scalar DataCentricNet.host[4].net 	MaxNeighborLqi 	189
scalar DataCentricNet.host[4].net 	MinNeighborLqi 	1
scalar DataCentricNet.host[4].net 	TEST_LengthLatestInterestArrivalPeriod 	0
scalar DataCentricNet.host[4].net 	ignoreRatio 	0.66417910447761
scalar DataCentricNet.host[5].net 	NumberOfNeighbours 	8
scalar DataCentricNet.host[5].net 	TotalNeighborLqi 	906
scalar DataCentricNet.host[5].net 	AverageNeighborLqi 	113.25
scalar DataCentricNet.host[5].net 	MaxNeighborLqi 	192
scalar DataCentricNet.host[5].net 	MinNeighborLqi 	39
scalar DataCentricNet.host[5].net 	TEST_LengthLatestInterestArrivalPeriod 	0
scalar DataCentricNet.host[5].net 	ignoreRatio 	0.50714285714286
scalar DataCentricNet.host[6].net 	NumberOfNeighbours 	7
scalar DataCentricNet.host[6].net 	TotalNeighborLqi 	831
scalar DataCentricNet.host[6].net 	AverageNeighborLqi 	118.71428571429
scalar DataCentricNet.host[6].net 	MaxNeighborLqi 	194
scalar DataCentricNet.host[6].net 	MinNeighborLqi 	44
scalar DataCentricNet.host[6].net 	TEST_LengthLatestInterestArrivalPeriod 	0
scalar DataCentricNet.host[6].net 	ignoreRatio 	0.47115384615385
scalar DataCentricNet.host[7].net 	NumberOfNeighbours 	5
scalar DataCentricNet.host[7].net 	TotalNeighborLqi 	788
scalar DataCentricNet.host[7].net 	AverageNeighborLqi 	157.6
scalar DataCentricNet.host[7].net 	MaxNeighborLqi 	250
scalar DataCentricNet.host[7].net 	MinNeighborLqi 	58
scalar DataCentricNet.host[7].net 	TEST_LengthLatestInterestArrivalPeriod 	0
scalar DataCentricNet.host[7].net 	ignoreRatio 	0.42105263157895
scalar DataCentricNet.host[8].net 	NumberOfNeighbours 	10
scalar DataCentricNet.host[8].net 	TotalNeighborLqi 	1276
scalar DataCentricNet.host[8].net 	AverageNeighborLqi 	127.6
scalar DataCentricNet.host[8].net 	MaxNeighborLqi 	217
scalar DataCentricNet.host[8].net 	MinNeighborLqi 	1
scalar DataCentricNet.host[8].net 	TEST_LengthLatestInterestArrivalPeriod 	0
scalar DataCentricNet.host[8].net 	ignoreRatio 	0.65236051502146
scalar DataCentricNet.host[9].net 	NumberOfNeighbours 	5
scalar DataCentricNet.host[9].net 	TotalNeighborLqi 	664
scalar DataCentricNet.host[9].net 	AverageNeighborLqi 	132.8
scalar DataCentricNet.host[9].net 	MaxNeighborLqi 	184
scalar DataCentricNet.host[9].net 	MinNeighborLqi 	58
scalar DataCentricNet.host[9].net 	TEST_LengthLatestInterestArrivalPeriod 	0
scalar DataCentricNet.host[9].net 	ignoreRatio 	0.35
scalar DataCentricNet.host[10].net 	NumberOfNeighbours 	10
scalar DataCentricNet.host[10].net 	TotalNeighborLqi 	1324
scalar DataCentricNet.host[10].net 	AverageNeighborLqi 	132.4
scalar DataCentricNet.host[10].net 	MaxNeighborLqi 	240
scalar DataCentricNet.host[10].net 	MinNeighborLqi 	57
scalar DataCentricNet.host[10].net 	TEST_LengthLatestInterestArrivalPeriod 	0
scalar DataCentricNet.host[10].net 	ignoreRatio 	0.52439024390244
scalar DataCentricNet.host[11].net 	NumberOfNeighbours 	8
scalar DataCentricNet.host[11].net 	TotalNeighborLqi 	1220
scalar DataCentricNet.host[11].net 	AverageNeighborLqi 	152.5
scalar DataCentricNet.host[11].net 	MaxNeighborLqi 	192
scalar DataCentricNet.host[11].net 	MinNeighborLqi 	58
scalar DataCentricNet.host[11].net 	TEST_LengthLatestInterestArrivalPeriod 	0
scalar DataCentricNet.host[11].net 	ignoreRatio 	0.54022988505747
scalar DataCentricNet.host[12].net 	NumberOfNeighbours 	6
scalar DataCentricNet.host[12].net 	TotalNeighborLqi 	988
scalar DataCentricNet.host[12].net 	AverageNeighborLqi 	164.66666666667
scalar DataCentricNet.host[12].net 	MaxNeighborLqi 	207
scalar DataCentricNet.host[12].net 	MinNeighborLqi 	113
scalar DataCentricNet.host[12].net 	TEST_LengthLatestInterestArrivalPeriod 	0
scalar DataCentricNet.host[12].net 	ignoreRatio 	0.46153846153846
scalar DataCentricNet.host[13].net 	NumberOfNeighbours 	8
scalar DataCentricNet.host[13].net 	TotalNeighborLqi 	967
scalar DataCentricNet.host[13].net 	AverageNeighborLqi 	120.875
scalar DataCentricNet.host[13].net 	MaxNeighborLqi 	238
scalar DataCentricNet.host[13].net 	MinNeighborLqi 	1
scalar DataCentricNet.host[13].net 	TEST_LengthLatestInterestArrivalPeriod 	0
scalar DataCentricNet.host[13].net 	ignoreRatio 	0.35483870967742
scalar DataCentricNet.host[14].net 	NumberOfNeighbours 	10
scalar DataCentricNet.host[14].net 	TotalNeighborLqi 	1488
scalar DataCentricNet.host[14].net 	AverageNeighborLqi 	148.8
scalar DataCentricNet.host[14].net 	MaxNeighborLqi 	245
scalar DataCentricNet.host[14].net 	MinNeighborLqi 	77
scalar DataCentricNet.host[14].net 	TEST_LengthLatestInterestArrivalPeriod 	0
scalar DataCentricNet.host[14].net 	ignoreRatio 	0.6150234741784
scalar DataCentricNet.host[15].net 	NumberOfNeighbours 	7
scalar DataCentricNet.host[15].net 	TotalNeighborLqi 	816
scalar DataCentricNet.host[15].net 	AverageNeighborLqi 	116.57142857143
scalar DataCentricNet.host[15].net 	MaxNeighborLqi 	187
scalar DataCentricNet.host[15].net 	MinNeighborLqi 	58
scalar DataCentricNet.host[15].net 	TEST_LengthLatestInterestArrivalPeriod 	0
scalar DataCentricNet.host[15].net 	ignoreRatio 	0.375
scalar DataCentricNet.host[16].net 	NumberOfNeighbours 	8
scalar DataCentricNet.host[16].net 	TotalNeighborLqi 	912
scalar DataCentricNet.host[16].net 	AverageNeighborLqi 	114
scalar DataCentricNet.host[16].net 	MaxNeighborLqi 	230
scalar DataCentricNet.host[16].net 	MinNeighborLqi 	11
scalar DataCentricNet.host[16].net 	TEST_LengthLatestInterestArrivalPeriod 	0
scalar DataCentricNet.host[16].net 	ignoreRatio 	0.47087378640777
scalar DataCentricNet.host[17].net 	NumberOfNeighbours 	7
scalar DataCentricNet.host[17].net 	TotalNeighborLqi 	687
scalar DataCentricNet.host[17].net 	AverageNeighborLqi 	98.142857142857
scalar DataCentricNet.host[17].net 	MaxNeighborLqi 	204
scalar DataCentricNet.host[17].net 	MinNeighborLqi 	1
scalar DataCentricNet.host[17].net 	TEST_LengthLatestInterestArrivalPeriod 	0
scalar DataCentricNet.host[17].net 	ignoreRatio 	0.55481727574751
scalar DataCentricNet.host[18].net 	NumberOfNeighbours 	5
scalar DataCentricNet.host[18].net 	TotalNeighborLqi 	747
scalar DataCentricNet.host[18].net 	AverageNeighborLqi 	149.4
scalar DataCentricNet.host[18].net 	MaxNeighborLqi 	255
scalar DataCentricNet.host[18].net 	MinNeighborLqi 	31
scalar DataCentricNet.host[18].net 	TEST_LengthLatestInterestArrivalPeriod 	0
scalar DataCentricNet.host[18].net 	ignoreRatio 	0.53333333333333
scalar DataCentricNet.host[19].net 	NumberOfNeighbours 	8
scalar DataCentricNet.host[19].net 	TotalNeighborLqi 	1040
scalar DataCentricNet.host[19].net 	AverageNeighborLqi 	130
scalar DataCentricNet.host[19].net 	MaxNeighborLqi 	192
scalar DataCentricNet.host[19].net 	MinNeighborLqi 	21
scalar DataCentricNet.host[19].net 	TEST_LengthLatestInterestArrivalPeriod 	0
scalar DataCentricNet.host[19].net 	ignoreRatio 	0.63358778625954
scalar DataCentricNet.host[20].net 	NumberOfNeighbours 	3
scalar DataCentricNet.host[20].net 	TotalNeighborLqi 	497
scalar DataCentricNet.host[20].net 	AverageNeighborLqi 	165.66666666667
scalar DataCentricNet.host[20].net 	MaxNeighborLqi 	192
scalar DataCentricNet.host[20].net 	MinNeighborLqi 	116
scalar DataCentricNet.host[20].net 	TEST_LengthLatestInterestArrivalPeriod 	0
scalar DataCentricNet.host[20].net 	ignoreRatio 	0.46428571428571
scalar DataCentricNet.host[21].net 	NumberOfNeighbours 	8
scalar DataCentricNet.host[21].net 	TotalNeighborLqi 	916
scalar DataCentricNet.host[21].net 	AverageNeighborLqi 	114.5
scalar DataCentricNet.host[21].net 	MaxNeighborLqi 	199
scalar DataCentricNet.host[21].net 	MinNeighborLqi 	1
scalar DataCentricNet.host[21].net 	TEST_LengthLatestInterestArrivalPeriod 	0
scalar DataCentricNet.host[21].net 	ignoreRatio 	0.52216748768473
scalar DataCentricNet.host[22].net 	NumberOfNeighbours 	10
scalar DataCentricNet.host[22].net 	TotalNeighborLqi 	1357
scalar DataCentricNet.host[22].net 	AverageNeighborLqi 	135.7
scalar DataCentricNet.host[22].net 	MaxNeighborLqi 	210
scalar DataCentricNet.host[22].net 	MinNeighborLqi 	23
scalar DataCentricNet.host[22].net 	TEST_LengthLatestInterestArrivalPeriod 	0
scalar DataCentricNet.host[22].net 	ignoreRatio 	0.67755102040816
scalar DataCentricNet.host[23].net 	NumberOfNeighbours 	6
scalar DataCentricNet.host[23].net 	TotalNeighborLqi 	918
scalar DataCentricNet.host[23].net 	AverageNeighborLqi 	153
scalar DataCentricNet.host[23].net 	MaxNeighborLqi 	220
scalar DataCentricNet.host[23].net 	MinNeighborLqi 	105
scalar DataCentricNet.host[23].net 	TEST_LengthLatestInterestArrivalPeriod 	0
scalar DataCentricNet.host[23].net 	ignoreRatio 	0.55555555555556
scalar DataCentricNet.host[24].net 	NumberOfNeighbours 	6
scalar DataCentricNet.host[24].net 	TotalNeighborLqi 	792
scalar DataCentricNet.host[24].net 	AverageNeighborLqi 	132
scalar DataCentricNet.host[24].net 	MaxNeighborLqi 	227
scalar DataCentricNet.host[24].net 	MinNeighborLqi 	36
scalar DataCentricNet.host[24].net 	TEST_LengthLatestInterestArrivalPeriod 	0
scalar DataCentricNet.host[24].net 	ignoreRatio 	0.55631399317406
scalar DataCentricNet.host[25].net 	NumberOfNeighbours 	8
scalar DataCentricNet.host[25].net 	TotalNeighborLqi 	888
scalar DataCentricNet.host[25].net 	AverageNeighborLqi 	111
scalar DataCentricNet.host[25].net 	MaxNeighborLqi 	146
scalar DataCentricNet.host[25].net 	MinNeighborLqi 	21
scalar DataCentricNet.host[25].net 	TEST_LengthLatestInterestArrivalPeriod 	0
scalar DataCentricNet.host[25].net 	ignoreRatio 	0.66051660516605
scalar DataCentricNet.host[26].net 	NumberOfNeighbours 	6
scalar DataCentricNet.host[26].net 	TotalNeighborLqi 	754
scalar DataCentricNet.host[26].net 	AverageNeighborLqi 	125.66666666667
scalar DataCentricNet.host[26].net 	MaxNeighborLqi 	253
scalar DataCentricNet.host[26].net 	MinNeighborLqi 	1
scalar DataCentricNet.host[26].net 	TEST_LengthLatestInterestArrivalPeriod 	0
scalar DataCentricNet.host[26].net 	ignoreRatio 	0.68807339449541
scalar DataCentricNet.host[27].net 	NumberOfNeighbours 	9
scalar DataCentricNet.host[27].net 	TotalNeighborLqi 	1292
scalar DataCentricNet.host[27].net 	AverageNeighborLqi 	143.55555555556
scalar DataCentricNet.host[27].net 	MaxNeighborLqi 	207
scalar DataCentricNet.host[27].net 	MinNeighborLqi 	29
scalar DataCentricNet.host[27].net 	TEST_LengthLatestInterestArrivalPeriod 	0
scalar DataCentricNet.host[27].net 	ignoreRatio 	0.505
scalar DataCentricNet.host[28].net 	NumberOfNeighbours 	6
scalar DataCentricNet.host[28].net 	TotalNeighborLqi 	975
scalar DataCentricNet.host[28].net 	AverageNeighborLqi 	162.5
scalar DataCentricNet.host[28].net 	MaxNeighborLqi 	225
scalar DataCentricNet.host[28].net 	MinNeighborLqi 	100
scalar DataCentricNet.host[28].net 	TEST_LengthLatestInterestArrivalPeriod 	0
scalar DataCentricNet.host[28].net 	ignoreRatio 	0.66292134831461
scalar DataCentricNet.host[29].net 	NumberOfNeighbours 	4
scalar DataCentricNet.host[29].net 	TotalNeighborLqi 	528
scalar DataCentricNet.host[29].net 	AverageNeighborLqi 	132
scalar DataCentricNet.host[29].net 	MaxNeighborLqi 	194
scalar DataCentricNet.host[29].net 	MinNeighborLqi 	58
scalar DataCentricNet.host[29].net 	TEST_LengthLatestInterestArrivalPeriod 	0
scalar DataCentricNet.host[29].net 	ignoreRatio 	0.52173913043478
scalar DataCentricNet.host[30].net 	NumberOfNeighbours 	7
scalar DataCentricNet.host[30].net 	TotalNeighborLqi 	631
scalar DataCentricNet.host[30].net 	AverageNeighborLqi 	90.142857142857
scalar DataCentricNet.host[30].net 	MaxNeighborLqi 	159
scalar DataCentricNet.host[30].net 	MinNeighborLqi 	16
scalar DataCentricNet.host[30].net 	TEST_LengthLatestInterestArrivalPeriod 	0
scalar DataCentricNet.host[30].net 	ignoreRatio 	0.52901023890785
scalar DataCentricNet.host[31].net 	NumberOfNeighbours 	5
scalar DataCentricNet.host[31].net 	TotalNeighborLqi 	838
scalar DataCentricNet.host[31].net 	AverageNeighborLqi 	167.6
scalar DataCentricNet.host[31].net 	MaxNeighborLqi 	217
scalar DataCentricNet.host[31].net 	MinNeighborLqi 	92
scalar DataCentricNet.host[31].net 	TEST_LengthLatestInterestArrivalPeriod 	0
scalar DataCentricNet.host[31].net 	ignoreRatio 	0.61052631578947
scalar DataCentricNet.host[32].net 	NumberOfNeighbours 	7
scalar DataCentricNet.host[32].net 	TotalNeighborLqi 	829
scalar DataCentricNet.host[32].net 	AverageNeighborLqi 	118.42857142857
scalar DataCentricNet.host[32].net 	MaxNeighborLqi 	220
scalar DataCentricNet.host[32].net 	MinNeighborLqi 	36
scalar DataCentricNet.host[32].net 	TEST_LengthLatestInterestArrivalPeriod 	0
scalar DataCentricNet.host[32].net 	ignoreRatio 	0.67213114754098
scalar DataCentricNet.host[33].net 	NumberOfNeighbours 	6
scalar DataCentricNet.host[33].net 	TotalNeighborLqi 	824
scalar DataCentricNet.host[33].net 	AverageNeighborLqi 	137.33333333333
scalar DataCentricNet.host[33].net 	MaxNeighborLqi 	189
scalar DataCentricNet.host[33].net 	MinNeighborLqi 	85
scalar DataCentricNet.host[33].net 	TEST_LengthLatestInterestArrivalPeriod 	0
scalar DataCentricNet.host[33].net 	ignoreRatio 	0.59139784946237
scalar DataCentricNet.host[34].net 	NumberOfNeighbours 	8
scalar DataCentricNet.host[34].net 	TotalNeighborLqi 	1061
scalar DataCentricNet.host[34].net 	AverageNeighborLqi 	132.625
scalar DataCentricNet.host[34].net 	MaxNeighborLqi 	179
scalar DataCentricNet.host[34].net 	MinNeighborLqi 	74
scalar DataCentricNet.host[34].net 	TEST_LengthLatestInterestArrivalPeriod 	0
scalar DataCentricNet.host[34].net 	ignoreRatio 	0.61111111111111
scalar DataCentricNet.host[35].net 	NumberOfNeighbours 	8
scalar DataCentricNet.host[35].net 	TotalNeighborLqi 	1009
scalar DataCentricNet.host[35].net 	AverageNeighborLqi 	126.125
scalar DataCentricNet.host[35].net 	MaxNeighborLqi 	212
scalar DataCentricNet.host[35].net 	MinNeighborLqi 	1
scalar DataCentricNet.host[35].net 	TEST_LengthLatestInterestArrivalPeriod 	0
scalar DataCentricNet.host[35].net 	ignoreRatio 	0.55135135135135
scalar DataCentricNet.host[36].net 	NumberOfNeighbours 	6
scalar DataCentricNet.host[36].net 	TotalNeighborLqi 	799
scalar DataCentricNet.host[36].net 	AverageNeighborLqi 	133.16666666667
scalar DataCentricNet.host[36].net 	MaxNeighborLqi 	250
scalar DataCentricNet.host[36].net 	MinNeighborLqi 	1
scalar DataCentricNet.host[36].net 	TEST_LengthLatestInterestArrivalPeriod 	0
scalar DataCentricNet.host[36].net 	ignoreRatio 	0.67796610169492
scalar DataCentricNet.host[37].net 	NumberOfNeighbours 	7
scalar DataCentricNet.host[37].net 	TotalNeighborLqi 	921
scalar DataCentricNet.host[37].net 	AverageNeighborLqi 	131.57142857143
scalar DataCentricNet.host[37].net 	MaxNeighborLqi 	197
scalar DataCentricNet.host[37].net 	MinNeighborLqi 	41
scalar DataCentricNet.host[37].net 	TEST_LengthLatestInterestArrivalPeriod 	0
scalar DataCentricNet.host[37].net 	ignoreRatio 	0.69400630914827
scalar DataCentricNet.host[38].net 	NumberOfNeighbours 	6
scalar DataCentricNet.host[38].net 	TotalNeighborLqi 	564
scalar DataCentricNet.host[38].net 	AverageNeighborLqi 	94
scalar DataCentricNet.host[38].net 	MaxNeighborLqi 	189
scalar DataCentricNet.host[38].net 	MinNeighborLqi 	1
scalar DataCentricNet.host[38].net 	TEST_LengthLatestInterestArrivalPeriod 	0
scalar DataCentricNet.host[38].net 	ignoreRatio 	0.60327868852459
scalar DataCentricNet.host[39].net 	NumberOfNeighbours 	8
scalar DataCentricNet.host[39].net 	TotalNeighborLqi 	950
scalar DataCentricNet.host[39].net 	AverageNeighborLqi 	118.75
scalar DataCentricNet.host[39].net 	MaxNeighborLqi 	169
scalar DataCentricNet.host[39].net 	MinNeighborLqi 	18
scalar DataCentricNet.host[39].net 	TEST_LengthLatestInterestArrivalPeriod 	0
scalar DataCentricNet.host[39].net 	ignoreRatio 	0.60344827586207
scalar DataCentricNet.host[40].net 	NumberOfNeighbours 	8
scalar DataCentricNet.host[40].net 	TotalNeighborLqi 	1054
scalar DataCentricNet.host[40].net 	AverageNeighborLqi 	131.75
scalar DataCentricNet.host[40].net 	MaxNeighborLqi 	227
scalar DataCentricNet.host[40].net 	MinNeighborLqi 	1
scalar DataCentricNet.host[40].net 	TEST_LengthLatestInterestArrivalPeriod 	0
scalar DataCentricNet.host[40].net 	ignoreRatio 	0.5188679245283
scalar DataCentricNet.host[41].net 	NumberOfNeighbours 	8
scalar DataCentricNet.host[41].net 	TotalNeighborLqi 	1363
scalar DataCentricNet.host[41].net 	AverageNeighborLqi 	170.375
scalar DataCentricNet.host[41].net 	MaxNeighborLqi 	225
scalar DataCentricNet.host[41].net 	MinNeighborLqi 	148
scalar DataCentricNet.host[41].net 	TEST_LengthLatestInterestArrivalPeriod 	0
scalar DataCentricNet.host[41].net 	ignoreRatio 	0.4
scalar DataCentricNet.host[42].net 	NumberOfNeighbours 	10
scalar DataCentricNet.host[42].net 	TotalNeighborLqi 	1144
scalar DataCentricNet.host[42].net 	AverageNeighborLqi 	114.4
scalar DataCentricNet.host[42].net 	MaxNeighborLqi 	189
scalar DataCentricNet.host[42].net 	MinNeighborLqi 	3
scalar DataCentricNet.host[42].net 	TEST_LengthLatestInterestArrivalPeriod 	0
scalar DataCentricNet.host[42].net 	ignoreRatio 	0.63673469387755
scalar DataCentricNet.host[43].net 	NumberOfNeighbours 	10
scalar DataCentricNet.host[43].net 	TotalNeighborLqi 	1339
scalar DataCentricNet.host[43].net 	AverageNeighborLqi 	133.9
scalar DataCentricNet.host[43].net 	MaxNeighborLqi 	215
scalar DataCentricNet.host[43].net 	MinNeighborLqi 	23
scalar DataCentricNet.host[43].net 	TEST_LengthLatestInterestArrivalPeriod 	0
scalar DataCentricNet.host[43].net 	ignoreRatio 	0.65546218487395
scalar DataCentricNet.host[44].net 	NumberOfNeighbours 	9
scalar DataCentricNet.host[44].net 	TotalNeighborLqi 	1042
scalar DataCentricNet.host[44].net 	AverageNeighborLqi 	115.77777777778
scalar DataCentricNet.host[44].net 	MaxNeighborLqi 	233
scalar DataCentricNet.host[44].net 	MinNeighborLqi 	1
scalar DataCentricNet.host[44].net 	TEST_LengthLatestInterestArrivalPeriod 	0
scalar DataCentricNet.host[44].net 	ignoreRatio 	0.49748743718593
scalar DataCentricNet.host[45].net 	NumberOfNeighbours 	8
scalar DataCentricNet.host[45].net 	TotalNeighborLqi 	1014
scalar DataCentricNet.host[45].net 	AverageNeighborLqi 	126.75
scalar DataCentricNet.host[45].net 	MaxNeighborLqi 	159
scalar DataCentricNet.host[45].net 	MinNeighborLqi 	72
scalar DataCentricNet.host[45].net 	TEST_LengthLatestInterestArrivalPeriod 	0
scalar DataCentricNet.host[45].net 	ignoreRatio 	0.50403225806452
scalar DataCentricNet.host[46].net 	NumberOfNeighbours 	7
scalar DataCentricNet.host[46].net 	TotalNeighborLqi 	970
scalar DataCentricNet.host[46].net 	AverageNeighborLqi 	138.57142857143
scalar DataCentricNet.host[46].net 	MaxNeighborLqi 	187
scalar DataCentricNet.host[46].net 	MinNeighborLqi 	90
scalar DataCentricNet.host[46].net 	TEST_LengthLatestInterestArrivalPeriod 	0
scalar DataCentricNet.host[46].net 	ignoreRatio 	0.57438016528926
scalar DataCentricNet.host[47].net 	NumberOfNeighbours 	7
scalar DataCentricNet.host[47].net 	TotalNeighborLqi 	985
scalar DataCentricNet.host[47].net 	AverageNeighborLqi 	140.71428571429
scalar DataCentricNet.host[47].net 	MaxNeighborLqi 	189
scalar DataCentricNet.host[47].net 	MinNeighborLqi 	67
scalar DataCentricNet.host[47].net 	TEST_LengthLatestInterestArrivalPeriod 	0
scalar DataCentricNet.host[47].net 	ignoreRatio 	0.56902356902357
scalar DataCentricNet.host[48].net 	NumberOfNeighbours 	6
scalar DataCentricNet.host[48].net 	TotalNeighborLqi 	811
scalar DataCentricNet.host[48].net 	AverageNeighborLqi 	135.16666666667
scalar DataCentricNet.host[48].net 	MaxNeighborLqi 	202
scalar DataCentricNet.host[48].net 	MinNeighborLqi 	67
scalar DataCentricNet.host[48].net 	TEST_LengthLatestInterestArrivalPeriod 	0
scalar DataCentricNet.host[48].net 	ignoreRatio 	0.46153846153846
scalar DataCentricNet.host[49].net 	NumberOfNeighbours 	5
scalar DataCentricNet.host[49].net 	TotalNeighborLqi 	967
scalar DataCentricNet.host[49].net 	AverageNeighborLqi 	193.4
scalar DataCentricNet.host[49].net 	MaxNeighborLqi 	235
scalar DataCentricNet.host[49].net 	MinNeighborLqi 	169
scalar DataCentricNet.host[49].net 	TEST_LengthLatestInterestArrivalPeriod 	0
scalar DataCentricNet.host[49].net 	ignoreRatio 	0.4478527607362
scalar DataCentricNet.host[50].net 	NumberOfNeighbours 	9
scalar DataCentricNet.host[50].net 	TotalNeighborLqi 	1356
scalar DataCentricNet.host[50].net 	AverageNeighborLqi 	150.66666666667
scalar DataCentricNet.host[50].net 	MaxNeighborLqi 	243
scalar DataCentricNet.host[50].net 	MinNeighborLqi 	77
scalar DataCentricNet.host[50].net 	TEST_LengthLatestInterestArrivalPeriod 	0
scalar DataCentricNet.host[50].net 	ignoreRatio 	0.58536585365854
scalar DataCentricNet.host[51].net 	NumberOfNeighbours 	7
scalar DataCentricNet.host[51].net 	TotalNeighborLqi 	1095
scalar DataCentricNet.host[51].net 	AverageNeighborLqi 	156.42857142857
scalar DataCentricNet.host[51].net 	MaxNeighborLqi 	250
scalar DataCentricNet.host[51].net 	MinNeighborLqi 	95
scalar DataCentricNet.host[51].net 	TEST_LengthLatestInterestArrivalPeriod 	0
scalar DataCentricNet.host[51].net 	ignoreRatio 	0.54330708661417
scalar DataCentricNet.host[52].net 	NumberOfNeighbours 	7
scalar DataCentricNet.host[52].net 	TotalNeighborLqi 	678
scalar DataCentricNet.host[52].net 	AverageNeighborLqi 	96.857142857143
scalar DataCentricNet.host[52].net 	MaxNeighborLqi 	174
scalar DataCentricNet.host[52].net 	MinNeighborLqi 	18
scalar DataCentricNet.host[52].net 	TEST_LengthLatestInterestArrivalPeriod 	0
scalar DataCentricNet.host[52].net 	ignoreRatio 	0.64529914529915
scalar DataCentricNet.host[53].net 	NumberOfNeighbours 	8
scalar DataCentricNet.host[53].net 	TotalNeighborLqi 	1126
scalar DataCentricNet.host[53].net 	AverageNeighborLqi 	140.75
scalar DataCentricNet.host[53].net 	MaxNeighborLqi 	253
scalar DataCentricNet.host[53].net 	MinNeighborLqi 	69
scalar DataCentricNet.host[53].net 	TEST_LengthLatestInterestArrivalPeriod 	0
scalar DataCentricNet.host[53].net 	ignoreRatio 	0.54744525547445
scalar DataCentricNet.host[54].net 	NumberOfNeighbours 	6
scalar DataCentricNet.host[54].net 	TotalNeighborLqi 	926
scalar DataCentricNet.host[54].net 	AverageNeighborLqi 	154.33333333333
scalar DataCentricNet.host[54].net 	MaxNeighborLqi 	227
scalar DataCentricNet.host[54].net 	MinNeighborLqi 	87
scalar DataCentricNet.host[54].net 	TEST_LengthLatestInterestArrivalPeriod 	0
scalar DataCentricNet.host[54].net 	ignoreRatio 	0.65
scalar DataCentricNet.host[55].net 	NumberOfNeighbours 	11
scalar DataCentricNet.host[55].net 	TotalNeighborLqi 	1251
scalar DataCentricNet.host[55].net 	AverageNeighborLqi 	113.72727272727
scalar DataCentricNet.host[55].net 	MaxNeighborLqi 	204
scalar DataCentricNet.host[55].net 	MinNeighborLqi 	1
scalar DataCentricNet.host[55].net 	TEST_LengthLatestInterestArrivalPeriod 	0
scalar DataCentricNet.host[55].net 	ignoreRatio 	0.59649122807018
scalar DataCentricNet.host[56].net 	NumberOfNeighbours 	7
scalar DataCentricNet.host[56].net 	TotalNeighborLqi 	825
scalar DataCentricNet.host[56].net 	AverageNeighborLqi 	117.85714285714
scalar DataCentricNet.host[56].net 	MaxNeighborLqi 	222
scalar DataCentricNet.host[56].net 	MinNeighborLqi 	1
scalar DataCentricNet.host[56].net 	TEST_LengthLatestInterestArrivalPeriod 	0
scalar DataCentricNet.host[56].net 	ignoreRatio 	0.54736842105263
scalar DataCentricNet.host[57].net 	NumberOfNeighbours 	4
scalar DataCentricNet.host[57].net 	TotalNeighborLqi 	553
scalar DataCentricNet.host[57].net 	AverageNeighborLqi 	138.25
scalar DataCentricNet.host[57].net 	MaxNeighborLqi 	217
scalar DataCentricNet.host[57].net 	MinNeighborLqi 	67
scalar DataCentricNet.host[57].net 	TEST_LengthLatestInterestArrivalPeriod 	0
scalar DataCentricNet.host[57].net 	ignoreRatio 	0.52577319587629
scalar DataCentricNet.host[58].net 	NumberOfNeighbours 	6
scalar DataCentricNet.host[58].net 	TotalNeighborLqi 	858
scalar DataCentricNet.host[58].net 	AverageNeighborLqi 	143
scalar DataCentricNet.host[58].net 	MaxNeighborLqi 	238
scalar DataCentricNet.host[58].net 	MinNeighborLqi 	29
scalar DataCentricNet.host[58].net 	TEST_LengthLatestInterestArrivalPeriod 	0
scalar DataCentricNet.host[58].net 	ignoreRatio 	0.55665024630542
scalar DataCentricNet.host[59].net 	NumberOfNeighbours 	7
scalar DataCentricNet.host[59].net 	TotalNeighborLqi 	1115
scalar DataCentricNet.host[59].net 	AverageNeighborLqi 	159.28571428571
scalar DataCentricNet.host[59].net 	MaxNeighborLqi 	225
scalar DataCentricNet.host[59].net 	MinNeighborLqi 	113
scalar DataCentricNet.host[59].net 	TEST_LengthLatestInterestArrivalPeriod 	0
scalar DataCentricNet.host[59].net 	ignoreRatio 	0.53038674033149
scalar DataCentricNet.host[60].net 	NumberOfNeighbours 	10
scalar DataCentricNet.host[60].net 	TotalNeighborLqi 	1347
scalar DataCentricNet.host[60].net 	AverageNeighborLqi 	134.7
scalar DataCentricNet.host[60].net 	MaxNeighborLqi 	202
scalar DataCentricNet.host[60].net 	MinNeighborLqi 	6
scalar DataCentricNet.host[60].net 	TEST_LengthLatestInterestArrivalPeriod 	0
scalar DataCentricNet.host[60].net 	ignoreRatio 	0.63137254901961
scalar DataCentricNet.host[61].net 	NumberOfNeighbours 	5
scalar DataCentricNet.host[61].net 	TotalNeighborLqi 	933
scalar DataCentricNet.host[61].net 	AverageNeighborLqi 	186.6
scalar DataCentricNet.host[61].net 	MaxNeighborLqi 	222
scalar DataCentricNet.host[61].net 	MinNeighborLqi 	118
scalar DataCentricNet.host[61].net 	TEST_LengthLatestInterestArrivalPeriod 	0
scalar DataCentricNet.host[61].net 	ignoreRatio 	0.57647058823529
scalar DataCentricNet.host[62].net 	NumberOfNeighbours 	6
scalar DataCentricNet.host[62].net 	TotalNeighborLqi 	934
scalar DataCentricNet.host[62].net 	AverageNeighborLqi 	155.66666666667
scalar DataCentricNet.host[62].net 	MaxNeighborLqi 	235
scalar DataCentricNet.host[62].net 	MinNeighborLqi 	92
scalar DataCentricNet.host[62].net 	TEST_LengthLatestInterestArrivalPeriod 	0
scalar DataCentricNet.host[62].net 	ignoreRatio 	0.62234042553191
scalar DataCentricNet.host[63].net 	NumberOfNeighbours 	9
scalar DataCentricNet.host[63].net 	TotalNeighborLqi 	1206
scalar DataCentricNet.host[63].net 	AverageNeighborLqi 	134
scalar DataCentricNet.host[63].net 	MaxNeighborLqi 	192
scalar DataCentricNet.host[63].net 	MinNeighborLqi 	1
scalar DataCentricNet.host[63].net 	TEST_LengthLatestInterestArrivalPeriod 	0
scalar DataCentricNet.host[63].net 	ignoreRatio 	0.58018867924528
scalar DataCentricNet.host[64].net 	NumberOfNeighbours 	10
scalar DataCentricNet.host[64].net 	TotalNeighborLqi 	1388
scalar DataCentricNet.host[64].net 	AverageNeighborLqi 	138.8
scalar DataCentricNet.host[64].net 	MaxNeighborLqi 	210
scalar DataCentricNet.host[64].net 	MinNeighborLqi 	54
scalar DataCentricNet.host[64].net 	TEST_LengthLatestInterestArrivalPeriod 	0
scalar DataCentricNet.host[64].net 	ignoreRatio 	0.57575757575758
scalar DataCentricNet.host[65].net 	NumberOfNeighbours 	8
scalar DataCentricNet.host[65].net 	TotalNeighborLqi 	1079
scalar DataCentricNet.host[65].net 	AverageNeighborLqi 	134.875
scalar DataCentricNet.host[65].net 	MaxNeighborLqi 	187
scalar DataCentricNet.host[65].net 	MinNeighborLqi 	67
scalar DataCentricNet.host[65].net 	TEST_LengthLatestInterestArrivalPeriod 	0
scalar DataCentricNet.host[65].net 	ignoreRatio 	0.57954545454545
scalar DataCentricNet.host[66].net 	NumberOfNeighbours 	6
scalar DataCentricNet.host[66].net 	TotalNeighborLqi 	827
scalar DataCentricNet.host[66].net 	AverageNeighborLqi 	137.83333333333
scalar DataCentricNet.host[66].net 	MaxNeighborLqi 	182
scalar DataCentricNet.host[66].net 	MinNeighborLqi 	108
scalar DataCentricNet.host[66].net 	TEST_LengthLatestInterestArrivalPeriod 	0
scalar DataCentricNet.host[66].net 	ignoreRatio 	0.60456273764259
scalar DataCentricNet.host[67].net 	NumberOfNeighbours 	7
scalar DataCentricNet.host[67].net 	TotalNeighborLqi 	841
scalar DataCentricNet.host[67].net 	AverageNeighborLqi 	120.14285714286
scalar DataCentricNet.host[67].net 	MaxNeighborLqi 	225
scalar DataCentricNet.host[67].net 	MinNeighborLqi 	1
scalar DataCentricNet.host[67].net 	TEST_LengthLatestInterestArrivalPeriod 	0
scalar DataCentricNet.host[67].net 	ignoreRatio 	0.56785714285714
scalar DataCentricNet.host[68].net 	NumberOfNeighbours 	9
scalar DataCentricNet.host[68].net 	TotalNeighborLqi 	912
scalar DataCentricNet.host[68].net 	AverageNeighborLqi 	101.33333333333
scalar DataCentricNet.host[68].net 	MaxNeighborLqi 	148
scalar DataCentricNet.host[68].net 	MinNeighborLqi 	41
scalar DataCentricNet.host[68].net 	TEST_LengthLatestInterestArrivalPeriod 	0
scalar DataCentricNet.host[68].net 	ignoreRatio 	0.54703832752613
scalar DataCentricNet.host[69].net 	NumberOfNeighbours 	10
scalar DataCentricNet.host[69].net 	TotalNeighborLqi 	1314
scalar DataCentricNet.host[69].net 	AverageNeighborLqi 	131.4
scalar DataCentricNet.host[69].net 	MaxNeighborLqi 	215
scalar DataCentricNet.host[69].net 	MinNeighborLqi 	1
scalar DataCentricNet.host[69].net 	TEST_LengthLatestInterestArrivalPeriod 	0
scalar DataCentricNet.host[69].net 	ignoreRatio 	0.6793893129771
scalar DataCentricNet.host[70].net 	NumberOfNeighbours 	8
scalar DataCentricNet.host[70].net 	TotalNeighborLqi 	1067
scalar DataCentricNet.host[70].net 	AverageNeighborLqi 	133.375
scalar DataCentricNet.host[70].net 	MaxNeighborLqi 	210
scalar DataCentricNet.host[70].net 	MinNeighborLqi 	90
scalar DataCentricNet.host[70].net 	TEST_LengthLatestInterestArrivalPeriod 	0
scalar DataCentricNet.host[70].net 	ignoreRatio 	0.43708609271523
scalar DataCentricNet.host[71].net 	NumberOfNeighbours 	4
scalar DataCentricNet.host[71].net 	TotalNeighborLqi 	672
scalar DataCentricNet.host[71].net 	AverageNeighborLqi 	168
scalar DataCentricNet.host[71].net 	MaxNeighborLqi 	253
scalar DataCentricNet.host[71].net 	MinNeighborLqi 	31
scalar DataCentricNet.host[71].net 	TEST_LengthLatestInterestArrivalPeriod 	0
scalar DataCentricNet.host[71].net 	ignoreRatio 	0.47619047619048
scalar DataCentricNet.host[72].net 	NumberOfNeighbours 	7
scalar DataCentricNet.host[72].net 	TotalNeighborLqi 	815
scalar DataCentricNet.host[72].net 	AverageNeighborLqi 	116.42857142857
scalar DataCentricNet.host[72].net 	MaxNeighborLqi 	161
scalar DataCentricNet.host[72].net 	MinNeighborLqi 	74
scalar DataCentricNet.host[72].net 	TEST_LengthLatestInterestArrivalPeriod 	0
scalar DataCentricNet.host[72].net 	ignoreRatio 	0.51980198019802
scalar DataCentricNet.host[73].net 	NumberOfNeighbours 	10
scalar DataCentricNet.host[73].net 	TotalNeighborLqi 	1262
scalar DataCentricNet.host[73].net 	AverageNeighborLqi 	126.2
scalar DataCentricNet.host[73].net 	MaxNeighborLqi 	235
scalar DataCentricNet.host[73].net 	MinNeighborLqi 	54
scalar DataCentricNet.host[73].net 	TEST_LengthLatestInterestArrivalPeriod 	0
scalar DataCentricNet.host[73].net 	ignoreRatio 	0.51630434782609
scalar DataCentricNet.host[74].net 	NumberOfNeighbours 	5
scalar DataCentricNet.host[74].net 	TotalNeighborLqi 	474
scalar DataCentricNet.host[74].net 	AverageNeighborLqi 	94.8
scalar DataCentricNet.host[74].net 	MaxNeighborLqi 	146
scalar DataCentricNet.host[74].net 	MinNeighborLqi 	36
scalar DataCentricNet.host[74].net 	TEST_LengthLatestInterestArrivalPeriod 	0
scalar DataCentricNet.host[74].net 	ignoreRatio 	0.5910780669145
scalar DataCentricNet.host[75].net 	NumberOfNeighbours 	7
scalar DataCentricNet.host[75].net 	TotalNeighborLqi 	806
scalar DataCentricNet.host[75].net 	AverageNeighborLqi 	115.14285714286
scalar DataCentricNet.host[75].net 	MaxNeighborLqi 	171
scalar DataCentricNet.host[75].net 	MinNeighborLqi 	11
scalar DataCentricNet.host[75].net 	TEST_LengthLatestInterestArrivalPeriod 	0
scalar DataCentricNet.host[75].net 	ignoreRatio 	0.43850267379679
scalar DataCentricNet.host[76].net 	NumberOfNeighbours 	7
scalar DataCentricNet.host[76].net 	TotalNeighborLqi 	949
scalar DataCentricNet.host[76].net 	AverageNeighborLqi 	135.57142857143
scalar DataCentricNet.host[76].net 	MaxNeighborLqi 	202
scalar DataCentricNet.host[76].net 	MinNeighborLqi 	74
scalar DataCentricNet.host[76].net 	TEST_LengthLatestInterestArrivalPeriod 	0
scalar DataCentricNet.host[76].net 	ignoreRatio 	0.71084337349398
scalar DataCentricNet.host[77].net 	NumberOfNeighbours 	7
scalar DataCentricNet.host[77].net 	TotalNeighborLqi 	781
scalar DataCentricNet.host[77].net 	AverageNeighborLqi 	111.57142857143
scalar DataCentricNet.host[77].net 	MaxNeighborLqi 	192
scalar DataCentricNet.host[77].net 	MinNeighborLqi 	23
scalar DataCentricNet.host[77].net 	TEST_LengthLatestInterestArrivalPeriod 	0
scalar DataCentricNet.host[77].net 	ignoreRatio 	0.61044176706827
scalar DataCentricNet.host[78].net 	NumberOfNeighbours 	10
scalar DataCentricNet.host[78].net 	TotalNeighborLqi 	1328
scalar DataCentricNet.host[78].net 	AverageNeighborLqi 	132.8
scalar DataCentricNet.host[78].net 	MaxNeighborLqi 	184
scalar DataCentricNet.host[78].net 	MinNeighborLqi 	39
scalar DataCentricNet.host[78].net 	TEST_LengthLatestInterestArrivalPeriod 	0
scalar DataCentricNet.host[78].net 	ignoreRatio 	0.58078602620087
scalar DataCentricNet.host[79].net 	NumberOfNeighbours 	6
scalar DataCentricNet.host[79].net 	TotalNeighborLqi 	758
scalar DataCentricNet.host[79].net 	AverageNeighborLqi 	126.33333333333
scalar DataCentricNet.host[79].net 	MaxNeighborLqi 	243
scalar DataCentricNet.host[79].net 	MinNeighborLqi 	29
scalar DataCentricNet.host[79].net 	TEST_LengthLatestInterestArrivalPeriod 	0
scalar DataCentricNet.host[79].net 	ignoreRatio 	0.54460093896714
scalar DataCentricNet.host[80].net 	NumberOfNeighbours 	6
scalar DataCentricNet.host[80].net 	TotalNeighborLqi 	873
scalar DataCentricNet.host[80].net 	AverageNeighborLqi 	145.5
scalar DataCentricNet.host[80].net 	MaxNeighborLqi 	225
scalar DataCentricNet.host[80].net 	MinNeighborLqi 	100
scalar DataCentricNet.host[80].net 	TEST_LengthLatestInterestArrivalPeriod 	0
scalar DataCentricNet.host[80].net 	ignoreRatio 	0.57317073170732
scalar DataCentricNet.host[81].net 	NumberOfNeighbours 	6
scalar DataCentricNet.host[81].net 	TotalNeighborLqi 	890
scalar DataCentricNet.host[81].net 	AverageNeighborLqi 	148.33333333333
scalar DataCentricNet.host[81].net 	MaxNeighborLqi 	230
scalar DataCentricNet.host[81].net 	MinNeighborLqi 	77
scalar DataCentricNet.host[81].net 	TEST_LengthLatestInterestArrivalPeriod 	0
scalar DataCentricNet.host[81].net 	ignoreRatio 	0.66666666666667
scalar DataCentricNet.host[82].net 	NumberOfNeighbours 	9
scalar DataCentricNet.host[82].net 	TotalNeighborLqi 	1066
scalar DataCentricNet.host[82].net 	AverageNeighborLqi 	118.44444444444
scalar DataCentricNet.host[82].net 	MaxNeighborLqi 	210
scalar DataCentricNet.host[82].net 	MinNeighborLqi 	3
scalar DataCentricNet.host[82].net 	TEST_LengthLatestInterestArrivalPeriod 	0
scalar DataCentricNet.host[82].net 	ignoreRatio 	0.56734693877551
scalar DataCentricNet.host[83].net 	NumberOfNeighbours 	10
scalar DataCentricNet.host[83].net 	TotalNeighborLqi 	1112
scalar DataCentricNet.host[83].net 	AverageNeighborLqi 	111.2
scalar DataCentricNet.host[83].net 	MaxNeighborLqi 	225
scalar DataCentricNet.host[83].net 	MinNeighborLqi 	6
scalar DataCentricNet.host[83].net 	TEST_LengthLatestInterestArrivalPeriod 	0
scalar DataCentricNet.host[83].net 	ignoreRatio 	0.5273631840796
scalar DataCentricNet.host[84].net 	NumberOfNeighbours 	7
scalar DataCentricNet.host[84].net 	TotalNeighborLqi 	863
scalar DataCentricNet.host[84].net 	AverageNeighborLqi 	123.28571428571
scalar DataCentricNet.host[84].net 	MaxNeighborLqi 	192
scalar DataCentricNet.host[84].net 	MinNeighborLqi 	1
scalar DataCentricNet.host[84].net 	TEST_LengthLatestInterestArrivalPeriod 	0
scalar DataCentricNet.host[84].net 	ignoreRatio 	0.56410256410256
scalar DataCentricNet.host[85].net 	NumberOfNeighbours 	10
scalar DataCentricNet.host[85].net 	TotalNeighborLqi 	1358
scalar DataCentricNet.host[85].net 	AverageNeighborLqi 	135.8
scalar DataCentricNet.host[85].net 	MaxNeighborLqi 	233
scalar DataCentricNet.host[85].net 	MinNeighborLqi 	1
scalar DataCentricNet.host[85].net 	TEST_LengthLatestInterestArrivalPeriod 	0
scalar DataCentricNet.host[85].net 	ignoreRatio 	0.56571428571429
scalar DataCentricNet.host[86].net 	NumberOfNeighbours 	6
scalar DataCentricNet.host[86].net 	TotalNeighborLqi 	903
scalar DataCentricNet.host[86].net 	AverageNeighborLqi 	150.5
scalar DataCentricNet.host[86].net 	MaxNeighborLqi 	204
scalar DataCentricNet.host[86].net 	MinNeighborLqi 	80
scalar DataCentricNet.host[86].net 	TEST_LengthLatestInterestArrivalPeriod 	0
scalar DataCentricNet.host[86].net 	ignoreRatio 	0.57575757575758
scalar DataCentricNet.host[87].net 	NumberOfNeighbours 	6
scalar DataCentricNet.host[87].net 	TotalNeighborLqi 	925
scalar DataCentricNet.host[87].net 	AverageNeighborLqi 	154.16666666667
scalar DataCentricNet.host[87].net 	MaxNeighborLqi 	243
scalar DataCentricNet.host[87].net 	MinNeighborLqi 	69
scalar DataCentricNet.host[87].net 	TEST_LengthLatestInterestArrivalPeriod 	0
scalar DataCentricNet.host[87].net 	ignoreRatio 	0.57075471698113
scalar DataCentricNet.host[88].net 	NumberOfNeighbours 	7
scalar DataCentricNet.host[88].net 	TotalNeighborLqi 	1028
scalar DataCentricNet.host[88].net 	AverageNeighborLqi 	146.85714285714
scalar DataCentricNet.host[88].net 	MaxNeighborLqi 	179
scalar DataCentricNet.host[88].net 	MinNeighborLqi 	41
scalar DataCentricNet.host[88].net 	TEST_LengthLatestInterestArrivalPeriod 	0
scalar DataCentricNet.host[88].net 	ignoreRatio 	0.64918032786885
scalar DataCentricNet.host[89].net 	NumberOfNeighbours 	8
scalar DataCentricNet.host[89].net 	TotalNeighborLqi 	706
scalar DataCentricNet.host[89].net 	AverageNeighborLqi 	88.25
scalar DataCentricNet.host[89].net 	MaxNeighborLqi 	169
scalar DataCentricNet.host[89].net 	MinNeighborLqi 	1
scalar DataCentricNet.host[89].net 	TEST_LengthLatestInterestArrivalPeriod 	0
scalar DataCentricNet.host[89].net 	ignoreRatio 	0.57400722021661
scalar DataCentricNet.host[90].net 	NumberOfNeighbours 	6
scalar DataCentricNet.host[90].net 	TotalNeighborLqi 	843
scalar DataCentricNet.host[90].net 	AverageNeighborLqi 	140.5
scalar DataCentricNet.host[90].net 	MaxNeighborLqi 	220
scalar DataCentricNet.host[90].net 	MinNeighborLqi 	1
scalar DataCentricNet.host[90].net 	TEST_LengthLatestInterestArrivalPeriod 	0
scalar DataCentricNet.host[90].net 	ignoreRatio 	0.57575757575758
scalar DataCentricNet.host[91].net 	NumberOfNeighbours 	6
scalar DataCentricNet.host[91].net 	TotalNeighborLqi 	494
scalar DataCentricNet.host[91].net 	AverageNeighborLqi 	82.333333333333
scalar DataCentricNet.host[91].net 	MaxNeighborLqi 	176
scalar DataCentricNet.host[91].net 	MinNeighborLqi 	13
scalar DataCentricNet.host[91].net 	TEST_LengthLatestInterestArrivalPeriod 	0
scalar DataCentricNet.host[91].net 	ignoreRatio 	0.60869565217391
scalar DataCentricNet.host[92].net 	NumberOfNeighbours 	10
scalar DataCentricNet.host[92].net 	TotalNeighborLqi 	1515
scalar DataCentricNet.host[92].net 	AverageNeighborLqi 	151.5
scalar DataCentricNet.host[92].net 	MaxNeighborLqi 	225
scalar DataCentricNet.host[92].net 	MinNeighborLqi 	92
scalar DataCentricNet.host[92].net 	TEST_LengthLatestInterestArrivalPeriod 	0
scalar DataCentricNet.host[92].net 	ignoreRatio 	0.57754010695187
scalar DataCentricNet.host[93].net 	NumberOfNeighbours 	8
scalar DataCentricNet.host[93].net 	TotalNeighborLqi 	968
scalar DataCentricNet.host[93].net 	AverageNeighborLqi 	121
scalar DataCentricNet.host[93].net 	MaxNeighborLqi 	217
scalar DataCentricNet.host[93].net 	MinNeighborLqi 	1
scalar DataCentricNet.host[93].net 	TEST_LengthLatestInterestArrivalPeriod 	0
scalar DataCentricNet.host[93].net 	ignoreRatio 	0.56382978723404
scalar DataCentricNet.host[94].net 	NumberOfNeighbours 	10
scalar DataCentricNet.host[94].net 	TotalNeighborLqi 	1368
scalar DataCentricNet.host[94].net 	AverageNeighborLqi 	136.8
scalar DataCentricNet.host[94].net 	MaxNeighborLqi 	187
scalar DataCentricNet.host[94].net 	MinNeighborLqi 	39
scalar DataCentricNet.host[94].net 	TEST_LengthLatestInterestArrivalPeriod 	0
scalar DataCentricNet.host[94].net 	ignoreRatio 	0.59336099585062
scalar DataCentricNet.host[95].net 	NumberOfNeighbours 	5
scalar DataCentricNet.host[95].net 	TotalNeighborLqi 	375
scalar DataCentricNet.host[95].net 	AverageNeighborLqi 	75
scalar DataCentricNet.host[95].net 	MaxNeighborLqi 	184
scalar DataCentricNet.host[95].net 	MinNeighborLqi 	1
scalar DataCentricNet.host[95].net 	TEST_LengthLatestInterestArrivalPeriod 	0
scalar DataCentricNet.host[95].net 	ignoreRatio 	0.63436123348018
scalar DataCentricNet.host[96].net 	NumberOfNeighbours 	9
scalar DataCentricNet.host[96].net 	TotalNeighborLqi 	1120
scalar DataCentricNet.host[96].net 	AverageNeighborLqi 	124.44444444444
scalar DataCentricNet.host[96].net 	MaxNeighborLqi 	194
scalar DataCentricNet.host[96].net 	MinNeighborLqi 	1
scalar DataCentricNet.host[96].net 	TEST_LengthLatestInterestArrivalPeriod 	0
scalar DataCentricNet.host[96].net 	ignoreRatio 	0.51968503937008
scalar DataCentricNet.host[97].net 	NumberOfNeighbours 	9
scalar DataCentricNet.host[97].net 	TotalNeighborLqi 	960
scalar DataCentricNet.host[97].net 	AverageNeighborLqi 	106.66666666667
scalar DataCentricNet.host[97].net 	MaxNeighborLqi 	199
scalar DataCentricNet.host[97].net 	MinNeighborLqi 	1
scalar DataCentricNet.host[97].net 	TEST_LengthLatestInterestArrivalPeriod 	0
scalar DataCentricNet.host[97].net 	ignoreRatio 	0.48372093023256
scalar DataCentricNet.host[98].net 	NumberOfNeighbours 	6
scalar DataCentricNet.host[98].net 	TotalNeighborLqi 	541
scalar DataCentricNet.host[98].net 	AverageNeighborLqi 	90.166666666667
scalar DataCentricNet.host[98].net 	MaxNeighborLqi 	189
scalar DataCentricNet.host[98].net 	MinNeighborLqi 	1
scalar DataCentricNet.host[98].net 	TEST_LengthLatestInterestArrivalPeriod 	0
scalar DataCentricNet.host[98].net 	ignoreRatio 	0.6234309623431
scalar DataCentricNet.host[99].net 	NumberOfNeighbours 	6
scalar DataCentricNet.host[99].net 	TotalNeighborLqi 	858
scalar DataCentricNet.host[99].net 	AverageNeighborLqi 	143
scalar DataCentricNet.host[99].net 	MaxNeighborLqi 	210
scalar DataCentricNet.host[99].net 	MinNeighborLqi 	80
scalar DataCentricNet.host[99].net 	TEST_LengthLatestInterestArrivalPeriod 	0
scalar DataCentricNet.host[99].net 	ignoreRatio 	0.58898305084746
scalar DataCentricNet.host[100].net 	NumberOfNeighbours 	10
scalar DataCentricNet.host[100].net 	TotalNeighborLqi 	1484
scalar DataCentricNet.host[100].net 	AverageNeighborLqi 	148.4
scalar DataCentricNet.host[100].net 	MaxNeighborLqi 	227
scalar DataCentricNet.host[100].net 	MinNeighborLqi 	72
scalar DataCentricNet.host[100].net 	TEST_LengthLatestInterestArrivalPeriod 	0
scalar DataCentricNet.host[100].net 	ignoreRatio 	0.5726872246696
scalar DataCentricNet.dataCentricNetworkMan 	DataArrivals 	156
scalar DataCentricNet.dataCentricNetworkMan 	PercentageArrivals 	100
scalar DataCentricNet.dataCentricNetworkMan 	DataFailures 	0
scalar DataCentricNet.dataCentricNetworkMan 	PercentageFailures 	0
scalar DataCentricNet.dataCentricNetworkMan 	MeanE2EDelay 	0.015645645514859
scalar DataCentricNet.dataCentricNetworkMan 	StdDevE2EDelay 	0.0090195068556271
scalar DataCentricNet.dataCentricNetworkMan 	MaxE2EDelay 	0.050840429353
scalar DataCentricNet.dataCentricNetworkMan 	MinE2EDelay 	0.002890619594
scalar DataCentricNet.dataCentricNetworkMan 	numControlPackets 	996
scalar DataCentricNet.dataCentricNetworkMan 	MeanBPS 	0
scalar DataCentricNet.dataCentricNetworkMan 	StdDevBPS 	-1.#IND
scalar DataCentricNet.dataCentricNetworkMan 	MaxBPS 	0
scalar DataCentricNet.dataCentricNetworkMan 	MinBPS 	0
