version 2
run DataCentric_Experiment_1-46-20121129-16:18:58-3132
attr configname DataCentric_Experiment_1
attr datetime 20121129-16:18:58
attr experiment DataCentric_Experiment_1
attr inifile DataCentric_2.ini
attr iterationvars $numNodes=96
attr iterationvars2 "$numNodes=96, $repetition=0"
attr measurement $numNodes=96
attr network DataCentricNet
attr numNodes 96
attr processid 3132
attr repetition 0
attr replication #0
attr resultdir results
attr runnumber 46
attr seedset 46

scalar . 	numNodes 	96
scalar DataCentricNet.host[0].net 	NumberOfNeighbours 	3
scalar DataCentricNet.host[0].net 	TotalNeighborLqi 	234
scalar DataCentricNet.host[0].net 	AverageNeighborLqi 	78
scalar DataCentricNet.host[0].net 	MaxNeighborLqi 	118
scalar DataCentricNet.host[0].net 	MinNeighborLqi 	0
scalar DataCentricNet.host[0].net 	TEST_LengthLatestInterestArrivalPeriod 	0
scalar DataCentricNet.host[0].net 	ignoreRatio 	0.67058823529412
scalar DataCentricNet.host[1].net 	NumberOfNeighbours 	8
scalar DataCentricNet.host[1].net 	TotalNeighborLqi 	849
scalar DataCentricNet.host[1].net 	AverageNeighborLqi 	106.125
scalar DataCentricNet.host[1].net 	MaxNeighborLqi 	166
scalar DataCentricNet.host[1].net 	MinNeighborLqi 	0
scalar DataCentricNet.host[1].net 	TEST_LengthLatestInterestArrivalPeriod 	0
scalar DataCentricNet.host[1].net 	ignoreRatio 	0.63197026022305
scalar DataCentricNet.host[2].net 	NumberOfNeighbours 	2
scalar DataCentricNet.host[2].net 	TotalNeighborLqi 	115
scalar DataCentricNet.host[2].net 	AverageNeighborLqi 	57.5
scalar DataCentricNet.host[2].net 	MaxNeighborLqi 	58
scalar DataCentricNet.host[2].net 	MinNeighborLqi 	57
scalar DataCentricNet.host[2].net 	TEST_LengthLatestInterestArrivalPeriod 	0
scalar DataCentricNet.host[2].net 	ignoreRatio 	0.68965517241379
scalar DataCentricNet.host[3].net 	NumberOfNeighbours 	9
scalar DataCentricNet.host[3].net 	TotalNeighborLqi 	766
scalar DataCentricNet.host[3].net 	AverageNeighborLqi 	85.111111111111
scalar DataCentricNet.host[3].net 	MaxNeighborLqi 	161
scalar DataCentricNet.host[3].net 	MinNeighborLqi 	0
scalar DataCentricNet.host[3].net 	TEST_LengthLatestInterestArrivalPeriod 	0
scalar DataCentricNet.host[3].net 	ignoreRatio 	0.65546218487395
scalar DataCentricNet.host[4].net 	NumberOfNeighbours 	6
scalar DataCentricNet.host[4].net 	TotalNeighborLqi 	532
scalar DataCentricNet.host[4].net 	AverageNeighborLqi 	88.666666666667
scalar DataCentricNet.host[4].net 	MaxNeighborLqi 	136
scalar DataCentricNet.host[4].net 	MinNeighborLqi 	26
scalar DataCentricNet.host[4].net 	TEST_LengthLatestInterestArrivalPeriod 	0
scalar DataCentricNet.host[4].net 	ignoreRatio 	0.45652173913043
scalar DataCentricNet.host[5].net 	NumberOfNeighbours 	6
scalar DataCentricNet.host[5].net 	TotalNeighborLqi 	770
scalar DataCentricNet.host[5].net 	AverageNeighborLqi 	128.33333333333
scalar DataCentricNet.host[5].net 	MaxNeighborLqi 	164
scalar DataCentricNet.host[5].net 	MinNeighborLqi 	58
scalar DataCentricNet.host[5].net 	TEST_LengthLatestInterestArrivalPeriod 	0
scalar DataCentricNet.host[5].net 	ignoreRatio 	0.61290322580645
scalar DataCentricNet.host[6].net 	NumberOfNeighbours 	11
scalar DataCentricNet.host[6].net 	TotalNeighborLqi 	1343
scalar DataCentricNet.host[6].net 	AverageNeighborLqi 	122.09090909091
scalar DataCentricNet.host[6].net 	MaxNeighborLqi 	189
scalar DataCentricNet.host[6].net 	MinNeighborLqi 	0
scalar DataCentricNet.host[6].net 	TEST_LengthLatestInterestArrivalPeriod 	0
scalar DataCentricNet.host[6].net 	ignoreRatio 	0.62735849056604
scalar DataCentricNet.host[7].net 	NumberOfNeighbours 	4
scalar DataCentricNet.host[7].net 	TotalNeighborLqi 	322
scalar DataCentricNet.host[7].net 	AverageNeighborLqi 	80.5
scalar DataCentricNet.host[7].net 	MaxNeighborLqi 	102
scalar DataCentricNet.host[7].net 	MinNeighborLqi 	58
scalar DataCentricNet.host[7].net 	TEST_LengthLatestInterestArrivalPeriod 	0
scalar DataCentricNet.host[7].net 	ignoreRatio 	0.32467532467532
scalar DataCentricNet.host[8].net 	NumberOfNeighbours 	11
scalar DataCentricNet.host[8].net 	TotalNeighborLqi 	1297
scalar DataCentricNet.host[8].net 	AverageNeighborLqi 	117.90909090909
scalar DataCentricNet.host[8].net 	MaxNeighborLqi 	159
scalar DataCentricNet.host[8].net 	MinNeighborLqi 	49
scalar DataCentricNet.host[8].net 	TEST_LengthLatestInterestArrivalPeriod 	0
scalar DataCentricNet.host[8].net 	ignoreRatio 	0.49230769230769
scalar DataCentricNet.host[9].net 	NumberOfNeighbours 	7
scalar DataCentricNet.host[9].net 	TotalNeighborLqi 	784
scalar DataCentricNet.host[9].net 	AverageNeighborLqi 	112
scalar DataCentricNet.host[9].net 	MaxNeighborLqi 	164
scalar DataCentricNet.host[9].net 	MinNeighborLqi 	1
scalar DataCentricNet.host[9].net 	TEST_LengthLatestInterestArrivalPeriod 	0
scalar DataCentricNet.host[9].net 	ignoreRatio 	0.44642857142857
scalar DataCentricNet.host[10].net 	NumberOfNeighbours 	9
scalar DataCentricNet.host[10].net 	TotalNeighborLqi 	1108
scalar DataCentricNet.host[10].net 	AverageNeighborLqi 	123.11111111111
scalar DataCentricNet.host[10].net 	MaxNeighborLqi 	169
scalar DataCentricNet.host[10].net 	MinNeighborLqi 	16
scalar DataCentricNet.host[10].net 	TEST_LengthLatestInterestArrivalPeriod 	0
scalar DataCentricNet.host[10].net 	ignoreRatio 	0.5777027027027
scalar DataCentricNet.host[11].net 	NumberOfNeighbours 	12
scalar DataCentricNet.host[11].net 	TotalNeighborLqi 	1390
scalar DataCentricNet.host[11].net 	AverageNeighborLqi 	115.83333333333
scalar DataCentricNet.host[11].net 	MaxNeighborLqi 	161
scalar DataCentricNet.host[11].net 	MinNeighborLqi 	1
scalar DataCentricNet.host[11].net 	TEST_LengthLatestInterestArrivalPeriod 	0
scalar DataCentricNet.host[11].net 	ignoreRatio 	0.60223048327138
scalar DataCentricNet.host[12].net 	NumberOfNeighbours 	2
scalar DataCentricNet.host[12].net 	TotalNeighborLqi 	74
scalar DataCentricNet.host[12].net 	AverageNeighborLqi 	37
scalar DataCentricNet.host[12].net 	MaxNeighborLqi 	74
scalar DataCentricNet.host[12].net 	MinNeighborLqi 	0
scalar DataCentricNet.host[12].net 	TEST_LengthLatestInterestArrivalPeriod 	0
scalar DataCentricNet.host[12].net 	ignoreRatio 	0.36842105263158
scalar DataCentricNet.host[13].net 	NumberOfNeighbours 	9
scalar DataCentricNet.host[13].net 	TotalNeighborLqi 	1194
scalar DataCentricNet.host[13].net 	AverageNeighborLqi 	132.66666666667
scalar DataCentricNet.host[13].net 	MaxNeighborLqi 	166
scalar DataCentricNet.host[13].net 	MinNeighborLqi 	80
scalar DataCentricNet.host[13].net 	TEST_LengthLatestInterestArrivalPeriod 	0
scalar DataCentricNet.host[13].net 	ignoreRatio 	0.58666666666667
scalar DataCentricNet.host[14].net 	NumberOfNeighbours 	6
scalar DataCentricNet.host[14].net 	TotalNeighborLqi 	439
scalar DataCentricNet.host[14].net 	AverageNeighborLqi 	73.166666666667
scalar DataCentricNet.host[14].net 	MaxNeighborLqi 	148
scalar DataCentricNet.host[14].net 	MinNeighborLqi 	23
scalar DataCentricNet.host[14].net 	TEST_LengthLatestInterestArrivalPeriod 	0
scalar DataCentricNet.host[14].net 	ignoreRatio 	0.63157894736842
scalar DataCentricNet.host[15].net 	NumberOfNeighbours 	6
scalar DataCentricNet.host[15].net 	TotalNeighborLqi 	554
scalar DataCentricNet.host[15].net 	AverageNeighborLqi 	92.333333333333
scalar DataCentricNet.host[15].net 	MaxNeighborLqi 	169
scalar DataCentricNet.host[15].net 	MinNeighborLqi 	23
scalar DataCentricNet.host[15].net 	TEST_LengthLatestInterestArrivalPeriod 	0
scalar DataCentricNet.host[15].net 	ignoreRatio 	0.35593220338983
scalar DataCentricNet.host[16].net 	NumberOfNeighbours 	9
scalar DataCentricNet.host[16].net 	TotalNeighborLqi 	988
scalar DataCentricNet.host[16].net 	AverageNeighborLqi 	109.77777777778
scalar DataCentricNet.host[16].net 	MaxNeighborLqi 	143
scalar DataCentricNet.host[16].net 	MinNeighborLqi 	26
scalar DataCentricNet.host[16].net 	TEST_LengthLatestInterestArrivalPeriod 	0
scalar DataCentricNet.host[16].net 	ignoreRatio 	0.52813852813853
scalar DataCentricNet.host[17].net 	NumberOfNeighbours 	9
scalar DataCentricNet.host[17].net 	TotalNeighborLqi 	1277
scalar DataCentricNet.host[17].net 	AverageNeighborLqi 	141.88888888889
scalar DataCentricNet.host[17].net 	MaxNeighborLqi 	164
scalar DataCentricNet.host[17].net 	MinNeighborLqi 	90
scalar DataCentricNet.host[17].net 	TEST_LengthLatestInterestArrivalPeriod 	0
scalar DataCentricNet.host[17].net 	ignoreRatio 	0.53191489361702
scalar DataCentricNet.host[18].net 	NumberOfNeighbours 	10
scalar DataCentricNet.host[18].net 	TotalNeighborLqi 	1017
scalar DataCentricNet.host[18].net 	AverageNeighborLqi 	101.7
scalar DataCentricNet.host[18].net 	MaxNeighborLqi 	164
scalar DataCentricNet.host[18].net 	MinNeighborLqi 	1
scalar DataCentricNet.host[18].net 	TEST_LengthLatestInterestArrivalPeriod 	0
scalar DataCentricNet.host[18].net 	ignoreRatio 	0.61648745519713
scalar DataCentricNet.host[19].net 	NumberOfNeighbours 	8
scalar DataCentricNet.host[19].net 	TotalNeighborLqi 	1083
scalar DataCentricNet.host[19].net 	AverageNeighborLqi 	135.375
scalar DataCentricNet.host[19].net 	MaxNeighborLqi 	169
scalar DataCentricNet.host[19].net 	MinNeighborLqi 	77
scalar DataCentricNet.host[19].net 	TEST_LengthLatestInterestArrivalPeriod 	0
scalar DataCentricNet.host[19].net 	ignoreRatio 	0.69026548672566
scalar DataCentricNet.host[20].net 	NumberOfNeighbours 	4
scalar DataCentricNet.host[20].net 	TotalNeighborLqi 	336
scalar DataCentricNet.host[20].net 	AverageNeighborLqi 	84
scalar DataCentricNet.host[20].net 	MaxNeighborLqi 	146
scalar DataCentricNet.host[20].net 	MinNeighborLqi 	1
scalar DataCentricNet.host[20].net 	TEST_LengthLatestInterestArrivalPeriod 	0
scalar DataCentricNet.host[20].net 	ignoreRatio 	0.54285714285714
scalar DataCentricNet.host[21].net 	NumberOfNeighbours 	4
scalar DataCentricNet.host[21].net 	TotalNeighborLqi 	264
scalar DataCentricNet.host[21].net 	AverageNeighborLqi 	66
scalar DataCentricNet.host[21].net 	MaxNeighborLqi 	159
scalar DataCentricNet.host[21].net 	MinNeighborLqi 	1
scalar DataCentricNet.host[21].net 	TEST_LengthLatestInterestArrivalPeriod 	0
scalar DataCentricNet.host[21].net 	ignoreRatio 	0.37209302325581
scalar DataCentricNet.host[22].net 	NumberOfNeighbours 	11
scalar DataCentricNet.host[22].net 	TotalNeighborLqi 	1355
scalar DataCentricNet.host[22].net 	AverageNeighborLqi 	123.18181818182
scalar DataCentricNet.host[22].net 	MaxNeighborLqi 	161
scalar DataCentricNet.host[22].net 	MinNeighborLqi 	44
scalar DataCentricNet.host[22].net 	TEST_LengthLatestInterestArrivalPeriod 	0
scalar DataCentricNet.host[22].net 	ignoreRatio 	0.63138686131387
scalar DataCentricNet.host[23].net 	NumberOfNeighbours 	5
scalar DataCentricNet.host[23].net 	TotalNeighborLqi 	650
scalar DataCentricNet.host[23].net 	AverageNeighborLqi 	130
scalar DataCentricNet.host[23].net 	MaxNeighborLqi 	169
scalar DataCentricNet.host[23].net 	MinNeighborLqi 	64
scalar DataCentricNet.host[23].net 	TEST_LengthLatestInterestArrivalPeriod 	0
scalar DataCentricNet.host[23].net 	ignoreRatio 	0.63945578231293
scalar DataCentricNet.host[24].net 	NumberOfNeighbours 	3
scalar DataCentricNet.host[24].net 	TotalNeighborLqi 	331
scalar DataCentricNet.host[24].net 	AverageNeighborLqi 	110.33333333333
scalar DataCentricNet.host[24].net 	MaxNeighborLqi 	146
scalar DataCentricNet.host[24].net 	MinNeighborLqi 	85
scalar DataCentricNet.host[24].net 	TEST_LengthLatestInterestArrivalPeriod 	0
scalar DataCentricNet.host[24].net 	ignoreRatio 	0.68789808917197
scalar DataCentricNet.host[25].net 	NumberOfNeighbours 	9
scalar DataCentricNet.host[25].net 	TotalNeighborLqi 	947
scalar DataCentricNet.host[25].net 	AverageNeighborLqi 	105.22222222222
scalar DataCentricNet.host[25].net 	MaxNeighborLqi 	146
scalar DataCentricNet.host[25].net 	MinNeighborLqi 	1
scalar DataCentricNet.host[25].net 	TEST_LengthLatestInterestArrivalPeriod 	0
scalar DataCentricNet.host[25].net 	ignoreRatio 	0.65758754863813
scalar DataCentricNet.host[26].net 	NumberOfNeighbours 	10
scalar DataCentricNet.host[26].net 	TotalNeighborLqi 	1024
scalar DataCentricNet.host[26].net 	AverageNeighborLqi 	102.4
scalar DataCentricNet.host[26].net 	MaxNeighborLqi 	153
scalar DataCentricNet.host[26].net 	MinNeighborLqi 	1
scalar DataCentricNet.host[26].net 	TEST_LengthLatestInterestArrivalPeriod 	0
scalar DataCentricNet.host[26].net 	ignoreRatio 	0.65686274509804
scalar DataCentricNet.host[27].net 	NumberOfNeighbours 	7
scalar DataCentricNet.host[27].net 	TotalNeighborLqi 	705
scalar DataCentricNet.host[27].net 	AverageNeighborLqi 	100.71428571429
scalar DataCentricNet.host[27].net 	MaxNeighborLqi 	153
scalar DataCentricNet.host[27].net 	MinNeighborLqi 	1
scalar DataCentricNet.host[27].net 	TEST_LengthLatestInterestArrivalPeriod 	0
scalar DataCentricNet.host[27].net 	ignoreRatio 	0.56015037593985
scalar DataCentricNet.host[28].net 	NumberOfNeighbours 	5
scalar DataCentricNet.host[28].net 	TotalNeighborLqi 	639
scalar DataCentricNet.host[28].net 	AverageNeighborLqi 	127.8
scalar DataCentricNet.host[28].net 	MaxNeighborLqi 	164
scalar DataCentricNet.host[28].net 	MinNeighborLqi 	58
scalar DataCentricNet.host[28].net 	TEST_LengthLatestInterestArrivalPeriod 	0
scalar DataCentricNet.host[28].net 	ignoreRatio 	0.34615384615385
scalar DataCentricNet.host[29].net 	NumberOfNeighbours 	11
scalar DataCentricNet.host[29].net 	TotalNeighborLqi 	1218
scalar DataCentricNet.host[29].net 	AverageNeighborLqi 	110.72727272727
scalar DataCentricNet.host[29].net 	MaxNeighborLqi 	166
scalar DataCentricNet.host[29].net 	MinNeighborLqi 	46
scalar DataCentricNet.host[29].net 	TEST_LengthLatestInterestArrivalPeriod 	0
scalar DataCentricNet.host[29].net 	ignoreRatio 	0.48672566371681
scalar DataCentricNet.host[30].net 	NumberOfNeighbours 	10
scalar DataCentricNet.host[30].net 	TotalNeighborLqi 	1058
scalar DataCentricNet.host[30].net 	AverageNeighborLqi 	105.8
scalar DataCentricNet.host[30].net 	MaxNeighborLqi 	166
scalar DataCentricNet.host[30].net 	MinNeighborLqi 	1
scalar DataCentricNet.host[30].net 	TEST_LengthLatestInterestArrivalPeriod 	0
scalar DataCentricNet.host[30].net 	ignoreRatio 	0.65543071161049
scalar DataCentricNet.host[31].net 	NumberOfNeighbours 	8
scalar DataCentricNet.host[31].net 	TotalNeighborLqi 	832
scalar DataCentricNet.host[31].net 	AverageNeighborLqi 	104
scalar DataCentricNet.host[31].net 	MaxNeighborLqi 	153
scalar DataCentricNet.host[31].net 	MinNeighborLqi 	44
scalar DataCentricNet.host[31].net 	TEST_LengthLatestInterestArrivalPeriod 	0
scalar DataCentricNet.host[31].net 	ignoreRatio 	0.55128205128205
scalar DataCentricNet.host[32].net 	NumberOfNeighbours 	2
scalar DataCentricNet.host[32].net 	TotalNeighborLqi 	261
scalar DataCentricNet.host[32].net 	AverageNeighborLqi 	130.5
scalar DataCentricNet.host[32].net 	MaxNeighborLqi 	136
scalar DataCentricNet.host[32].net 	MinNeighborLqi 	125
scalar DataCentricNet.host[32].net 	TEST_LengthLatestInterestArrivalPeriod 	0
scalar DataCentricNet.host[32].net 	ignoreRatio 	0.7479674796748
scalar DataCentricNet.host[33].net 	NumberOfNeighbours 	8
scalar DataCentricNet.host[33].net 	TotalNeighborLqi 	1151
scalar DataCentricNet.host[33].net 	AverageNeighborLqi 	143.875
scalar DataCentricNet.host[33].net 	MaxNeighborLqi 	161
scalar DataCentricNet.host[33].net 	MinNeighborLqi 	95
scalar DataCentricNet.host[33].net 	TEST_LengthLatestInterestArrivalPeriod 	0
scalar DataCentricNet.host[33].net 	ignoreRatio 	0.65174129353234
scalar DataCentricNet.host[34].net 	NumberOfNeighbours 	10
scalar DataCentricNet.host[34].net 	TotalNeighborLqi 	1019
scalar DataCentricNet.host[34].net 	AverageNeighborLqi 	101.9
scalar DataCentricNet.host[34].net 	MaxNeighborLqi 	151
scalar DataCentricNet.host[34].net 	MinNeighborLqi 	11
scalar DataCentricNet.host[34].net 	TEST_LengthLatestInterestArrivalPeriod 	0
scalar DataCentricNet.host[34].net 	ignoreRatio 	0.64426877470356
scalar DataCentricNet.host[35].net 	NumberOfNeighbours 	10
scalar DataCentricNet.host[35].net 	TotalNeighborLqi 	1097
scalar DataCentricNet.host[35].net 	AverageNeighborLqi 	109.7
scalar DataCentricNet.host[35].net 	MaxNeighborLqi 	166
scalar DataCentricNet.host[35].net 	MinNeighborLqi 	1
scalar DataCentricNet.host[35].net 	TEST_LengthLatestInterestArrivalPeriod 	0
scalar DataCentricNet.host[35].net 	ignoreRatio 	0.67692307692308
scalar DataCentricNet.host[36].net 	NumberOfNeighbours 	0
scalar DataCentricNet.host[36].net 	TotalNeighborLqi 	0
scalar DataCentricNet.host[36].net 	AverageNeighborLqi 	0
scalar DataCentricNet.host[36].net 	MaxNeighborLqi 	0
scalar DataCentricNet.host[36].net 	MinNeighborLqi 	0
scalar DataCentricNet.host[36].net 	TEST_LengthLatestInterestArrivalPeriod 	0
scalar DataCentricNet.host[36].net 	ignoreRatio 	0.54705882352941
scalar DataCentricNet.host[37].net 	NumberOfNeighbours 	9
scalar DataCentricNet.host[37].net 	TotalNeighborLqi 	1043
scalar DataCentricNet.host[37].net 	AverageNeighborLqi 	115.88888888889
scalar DataCentricNet.host[37].net 	MaxNeighborLqi 	169
scalar DataCentricNet.host[37].net 	MinNeighborLqi 	1
scalar DataCentricNet.host[37].net 	TEST_LengthLatestInterestArrivalPeriod 	0
scalar DataCentricNet.host[37].net 	ignoreRatio 	0.57307692307692
scalar DataCentricNet.host[38].net 	NumberOfNeighbours 	10
scalar DataCentricNet.host[38].net 	TotalNeighborLqi 	1076
scalar DataCentricNet.host[38].net 	AverageNeighborLqi 	107.6
scalar DataCentricNet.host[38].net 	MaxNeighborLqi 	159
scalar DataCentricNet.host[38].net 	MinNeighborLqi 	1
scalar DataCentricNet.host[38].net 	TEST_LengthLatestInterestArrivalPeriod 	0
scalar DataCentricNet.host[38].net 	ignoreRatio 	0.68095238095238
scalar DataCentricNet.host[39].net 	NumberOfNeighbours 	10
scalar DataCentricNet.host[39].net 	TotalNeighborLqi 	1046
scalar DataCentricNet.host[39].net 	AverageNeighborLqi 	104.6
scalar DataCentricNet.host[39].net 	MaxNeighborLqi 	166
scalar DataCentricNet.host[39].net 	MinNeighborLqi 	39
scalar DataCentricNet.host[39].net 	TEST_LengthLatestInterestArrivalPeriod 	0
scalar DataCentricNet.host[39].net 	ignoreRatio 	0.63786008230453
scalar DataCentricNet.host[40].net 	NumberOfNeighbours 	8
scalar DataCentricNet.host[40].net 	TotalNeighborLqi 	950
scalar DataCentricNet.host[40].net 	AverageNeighborLqi 	118.75
scalar DataCentricNet.host[40].net 	MaxNeighborLqi 	161
scalar DataCentricNet.host[40].net 	MinNeighborLqi 	54
scalar DataCentricNet.host[40].net 	TEST_LengthLatestInterestArrivalPeriod 	0
scalar DataCentricNet.host[40].net 	ignoreRatio 	0.65596330275229
scalar DataCentricNet.host[41].net 	NumberOfNeighbours 	5
scalar DataCentricNet.host[41].net 	TotalNeighborLqi 	732
scalar DataCentricNet.host[41].net 	AverageNeighborLqi 	146.4
scalar DataCentricNet.host[41].net 	MaxNeighborLqi 	166
scalar DataCentricNet.host[41].net 	MinNeighborLqi 	105
scalar DataCentricNet.host[41].net 	TEST_LengthLatestInterestArrivalPeriod 	0
scalar DataCentricNet.host[41].net 	ignoreRatio 	0.68240343347639
scalar DataCentricNet.host[42].net 	NumberOfNeighbours 	11
scalar DataCentricNet.host[42].net 	TotalNeighborLqi 	1163
scalar DataCentricNet.host[42].net 	AverageNeighborLqi 	105.72727272727
scalar DataCentricNet.host[42].net 	MaxNeighborLqi 	166
scalar DataCentricNet.host[42].net 	MinNeighborLqi 	46
scalar DataCentricNet.host[42].net 	TEST_LengthLatestInterestArrivalPeriod 	0
scalar DataCentricNet.host[42].net 	ignoreRatio 	0.55601659751037
scalar DataCentricNet.host[43].net 	NumberOfNeighbours 	10
scalar DataCentricNet.host[43].net 	TotalNeighborLqi 	1064
scalar DataCentricNet.host[43].net 	AverageNeighborLqi 	106.4
scalar DataCentricNet.host[43].net 	MaxNeighborLqi 	169
scalar DataCentricNet.host[43].net 	MinNeighborLqi 	1
scalar DataCentricNet.host[43].net 	TEST_LengthLatestInterestArrivalPeriod 	0
scalar DataCentricNet.host[43].net 	ignoreRatio 	0.65369649805447
scalar DataCentricNet.host[44].net 	NumberOfNeighbours 	8
scalar DataCentricNet.host[44].net 	TotalNeighborLqi 	901
scalar DataCentricNet.host[44].net 	AverageNeighborLqi 	112.625
scalar DataCentricNet.host[44].net 	MaxNeighborLqi 	153
scalar DataCentricNet.host[44].net 	MinNeighborLqi 	62
scalar DataCentricNet.host[44].net 	TEST_LengthLatestInterestArrivalPeriod 	0
scalar DataCentricNet.host[44].net 	ignoreRatio 	0.62389380530973
scalar DataCentricNet.host[45].net 	NumberOfNeighbours 	8
scalar DataCentricNet.host[45].net 	TotalNeighborLqi 	905
scalar DataCentricNet.host[45].net 	AverageNeighborLqi 	113.125
scalar DataCentricNet.host[45].net 	MaxNeighborLqi 	164
scalar DataCentricNet.host[45].net 	MinNeighborLqi 	57
scalar DataCentricNet.host[45].net 	TEST_LengthLatestInterestArrivalPeriod 	0
scalar DataCentricNet.host[45].net 	ignoreRatio 	0.46700507614213
scalar DataCentricNet.host[46].net 	NumberOfNeighbours 	9
scalar DataCentricNet.host[46].net 	TotalNeighborLqi 	1249
scalar DataCentricNet.host[46].net 	AverageNeighborLqi 	138.77777777778
scalar DataCentricNet.host[46].net 	MaxNeighborLqi 	164
scalar DataCentricNet.host[46].net 	MinNeighborLqi 	97
scalar DataCentricNet.host[46].net 	TEST_LengthLatestInterestArrivalPeriod 	0
scalar DataCentricNet.host[46].net 	ignoreRatio 	0.6551724137931
scalar DataCentricNet.host[47].net 	NumberOfNeighbours 	5
scalar DataCentricNet.host[47].net 	TotalNeighborLqi 	362
scalar DataCentricNet.host[47].net 	AverageNeighborLqi 	72.4
scalar DataCentricNet.host[47].net 	MaxNeighborLqi 	138
scalar DataCentricNet.host[47].net 	MinNeighborLqi 	1
scalar DataCentricNet.host[47].net 	TEST_LengthLatestInterestArrivalPeriod 	0
scalar DataCentricNet.host[47].net 	ignoreRatio 	0.67045454545455
scalar DataCentricNet.host[48].net 	NumberOfNeighbours 	1
scalar DataCentricNet.host[48].net 	TotalNeighborLqi 	156
scalar DataCentricNet.host[48].net 	AverageNeighborLqi 	156
scalar DataCentricNet.host[48].net 	MaxNeighborLqi 	156
scalar DataCentricNet.host[48].net 	MinNeighborLqi 	156
scalar DataCentricNet.host[48].net 	TEST_LengthLatestInterestArrivalPeriod 	0
scalar DataCentricNet.host[48].net 	ignoreRatio 	0.86666666666667
scalar DataCentricNet.host[49].net 	NumberOfNeighbours 	9
scalar DataCentricNet.host[49].net 	TotalNeighborLqi 	876
scalar DataCentricNet.host[49].net 	AverageNeighborLqi 	97.333333333333
scalar DataCentricNet.host[49].net 	MaxNeighborLqi 	166
scalar DataCentricNet.host[49].net 	MinNeighborLqi 	1
scalar DataCentricNet.host[49].net 	TEST_LengthLatestInterestArrivalPeriod 	0
scalar DataCentricNet.host[49].net 	ignoreRatio 	0.5962441314554
scalar DataCentricNet.host[50].net 	NumberOfNeighbours 	4
scalar DataCentricNet.host[50].net 	TotalNeighborLqi 	458
scalar DataCentricNet.host[50].net 	AverageNeighborLqi 	114.5
scalar DataCentricNet.host[50].net 	MaxNeighborLqi 	148
scalar DataCentricNet.host[50].net 	MinNeighborLqi 	26
scalar DataCentricNet.host[50].net 	TEST_LengthLatestInterestArrivalPeriod 	0
scalar DataCentricNet.host[50].net 	ignoreRatio 	0.64566929133858
scalar DataCentricNet.host[51].net 	NumberOfNeighbours 	10
scalar DataCentricNet.host[51].net 	TotalNeighborLqi 	1332
scalar DataCentricNet.host[51].net 	AverageNeighborLqi 	133.2
scalar DataCentricNet.host[51].net 	MaxNeighborLqi 	169
scalar DataCentricNet.host[51].net 	MinNeighborLqi 	54
scalar DataCentricNet.host[51].net 	TEST_LengthLatestInterestArrivalPeriod 	0
scalar DataCentricNet.host[51].net 	ignoreRatio 	0.5462962962963
scalar DataCentricNet.host[52].net 	NumberOfNeighbours 	2
scalar DataCentricNet.host[52].net 	TotalNeighborLqi 	68
scalar DataCentricNet.host[52].net 	AverageNeighborLqi 	34
scalar DataCentricNet.host[52].net 	MaxNeighborLqi 	67
scalar DataCentricNet.host[52].net 	MinNeighborLqi 	1
scalar DataCentricNet.host[52].net 	TEST_LengthLatestInterestArrivalPeriod 	0
scalar DataCentricNet.host[52].net 	ignoreRatio 	0.69067796610169
scalar DataCentricNet.host[53].net 	NumberOfNeighbours 	7
scalar DataCentricNet.host[53].net 	TotalNeighborLqi 	550
scalar DataCentricNet.host[53].net 	AverageNeighborLqi 	78.571428571429
scalar DataCentricNet.host[53].net 	MaxNeighborLqi 	146
scalar DataCentricNet.host[53].net 	MinNeighborLqi 	13
scalar DataCentricNet.host[53].net 	TEST_LengthLatestInterestArrivalPeriod 	0
scalar DataCentricNet.host[53].net 	ignoreRatio 	0.65581395348837
scalar DataCentricNet.host[54].net 	NumberOfNeighbours 	6
scalar DataCentricNet.host[54].net 	TotalNeighborLqi 	834
scalar DataCentricNet.host[54].net 	AverageNeighborLqi 	139
scalar DataCentricNet.host[54].net 	MaxNeighborLqi 	169
scalar DataCentricNet.host[54].net 	MinNeighborLqi 	77
scalar DataCentricNet.host[54].net 	TEST_LengthLatestInterestArrivalPeriod 	0
scalar DataCentricNet.host[54].net 	ignoreRatio 	0.61785714285714
scalar DataCentricNet.host[55].net 	NumberOfNeighbours 	2
scalar DataCentricNet.host[55].net 	TotalNeighborLqi 	240
scalar DataCentricNet.host[55].net 	AverageNeighborLqi 	120
scalar DataCentricNet.host[55].net 	MaxNeighborLqi 	166
scalar DataCentricNet.host[55].net 	MinNeighborLqi 	74
scalar DataCentricNet.host[55].net 	TEST_LengthLatestInterestArrivalPeriod 	0
scalar DataCentricNet.host[55].net 	ignoreRatio 	0.59336099585062
scalar DataCentricNet.host[56].net 	NumberOfNeighbours 	8
scalar DataCentricNet.host[56].net 	TotalNeighborLqi 	838
scalar DataCentricNet.host[56].net 	AverageNeighborLqi 	104.75
scalar DataCentricNet.host[56].net 	MaxNeighborLqi 	151
scalar DataCentricNet.host[56].net 	MinNeighborLqi 	64
scalar DataCentricNet.host[56].net 	TEST_LengthLatestInterestArrivalPeriod 	0
scalar DataCentricNet.host[56].net 	ignoreRatio 	0.50454545454545
scalar DataCentricNet.host[57].net 	NumberOfNeighbours 	3
scalar DataCentricNet.host[57].net 	TotalNeighborLqi 	279
scalar DataCentricNet.host[57].net 	AverageNeighborLqi 	93
scalar DataCentricNet.host[57].net 	MaxNeighborLqi 	166
scalar DataCentricNet.host[57].net 	MinNeighborLqi 	46
scalar DataCentricNet.host[57].net 	TEST_LengthLatestInterestArrivalPeriod 	0
scalar DataCentricNet.host[57].net 	ignoreRatio 	0.83783783783784
scalar DataCentricNet.host[58].net 	NumberOfNeighbours 	7
scalar DataCentricNet.host[58].net 	TotalNeighborLqi 	778
scalar DataCentricNet.host[58].net 	AverageNeighborLqi 	111.14285714286
scalar DataCentricNet.host[58].net 	MaxNeighborLqi 	169
scalar DataCentricNet.host[58].net 	MinNeighborLqi 	6
scalar DataCentricNet.host[58].net 	TEST_LengthLatestInterestArrivalPeriod 	0
scalar DataCentricNet.host[58].net 	ignoreRatio 	0.66666666666667
scalar DataCentricNet.host[59].net 	NumberOfNeighbours 	10
scalar DataCentricNet.host[59].net 	TotalNeighborLqi 	1067
scalar DataCentricNet.host[59].net 	AverageNeighborLqi 	106.7
scalar DataCentricNet.host[59].net 	MaxNeighborLqi 	161
scalar DataCentricNet.host[59].net 	MinNeighborLqi 	8
scalar DataCentricNet.host[59].net 	TEST_LengthLatestInterestArrivalPeriod 	0
scalar DataCentricNet.host[59].net 	ignoreRatio 	0.64363636363636
scalar DataCentricNet.host[60].net 	NumberOfNeighbours 	11
scalar DataCentricNet.host[60].net 	TotalNeighborLqi 	1257
scalar DataCentricNet.host[60].net 	AverageNeighborLqi 	114.27272727273
scalar DataCentricNet.host[60].net 	MaxNeighborLqi 	253
scalar DataCentricNet.host[60].net 	MinNeighborLqi 	1
scalar DataCentricNet.host[60].net 	TEST_LengthLatestInterestArrivalPeriod 	0
scalar DataCentricNet.host[60].net 	ignoreRatio 	0.65034965034965
scalar DataCentricNet.host[61].net 	NumberOfNeighbours 	3
scalar DataCentricNet.host[61].net 	TotalNeighborLqi 	361
scalar DataCentricNet.host[61].net 	AverageNeighborLqi 	120.33333333333
scalar DataCentricNet.host[61].net 	MaxNeighborLqi 	148
scalar DataCentricNet.host[61].net 	MinNeighborLqi 	85
scalar DataCentricNet.host[61].net 	TEST_LengthLatestInterestArrivalPeriod 	0
scalar DataCentricNet.host[61].net 	ignoreRatio 	0.76282051282051
scalar DataCentricNet.host[62].net 	NumberOfNeighbours 	6
scalar DataCentricNet.host[62].net 	TotalNeighborLqi 	750
scalar DataCentricNet.host[62].net 	AverageNeighborLqi 	125
scalar DataCentricNet.host[62].net 	MaxNeighborLqi 	148
scalar DataCentricNet.host[62].net 	MinNeighborLqi 	85
scalar DataCentricNet.host[62].net 	TEST_LengthLatestInterestArrivalPeriod 	0
scalar DataCentricNet.host[62].net 	ignoreRatio 	0.66666666666667
scalar DataCentricNet.host[63].net 	NumberOfNeighbours 	6
scalar DataCentricNet.host[63].net 	TotalNeighborLqi 	829
scalar DataCentricNet.host[63].net 	AverageNeighborLqi 	138.16666666667
scalar DataCentricNet.host[63].net 	MaxNeighborLqi 	166
scalar DataCentricNet.host[63].net 	MinNeighborLqi 	95
scalar DataCentricNet.host[63].net 	TEST_LengthLatestInterestArrivalPeriod 	0
scalar DataCentricNet.host[63].net 	ignoreRatio 	0.63297872340426
scalar DataCentricNet.host[64].net 	NumberOfNeighbours 	6
scalar DataCentricNet.host[64].net 	TotalNeighborLqi 	735
scalar DataCentricNet.host[64].net 	AverageNeighborLqi 	122.5
scalar DataCentricNet.host[64].net 	MaxNeighborLqi 	166
scalar DataCentricNet.host[64].net 	MinNeighborLqi 	77
scalar DataCentricNet.host[64].net 	TEST_LengthLatestInterestArrivalPeriod 	0
scalar DataCentricNet.host[64].net 	ignoreRatio 	0.71548117154812
scalar DataCentricNet.host[65].net 	NumberOfNeighbours 	2
scalar DataCentricNet.host[65].net 	TotalNeighborLqi 	273
scalar DataCentricNet.host[65].net 	AverageNeighborLqi 	136.5
scalar DataCentricNet.host[65].net 	MaxNeighborLqi 	148
scalar DataCentricNet.host[65].net 	MinNeighborLqi 	125
scalar DataCentricNet.host[65].net 	TEST_LengthLatestInterestArrivalPeriod 	0
scalar DataCentricNet.host[65].net 	ignoreRatio 	0.86096256684492
scalar DataCentricNet.host[66].net 	NumberOfNeighbours 	3
scalar DataCentricNet.host[66].net 	TotalNeighborLqi 	454
scalar DataCentricNet.host[66].net 	AverageNeighborLqi 	151.33333333333
scalar DataCentricNet.host[66].net 	MaxNeighborLqi 	249
scalar DataCentricNet.host[66].net 	MinNeighborLqi 	87
scalar DataCentricNet.host[66].net 	TEST_LengthLatestInterestArrivalPeriod 	0
scalar DataCentricNet.host[66].net 	ignoreRatio 	0.60377358490566
scalar DataCentricNet.host[67].net 	NumberOfNeighbours 	5
scalar DataCentricNet.host[67].net 	TotalNeighborLqi 	539
scalar DataCentricNet.host[67].net 	AverageNeighborLqi 	107.8
scalar DataCentricNet.host[67].net 	MaxNeighborLqi 	164
scalar DataCentricNet.host[67].net 	MinNeighborLqi 	6
scalar DataCentricNet.host[67].net 	TEST_LengthLatestInterestArrivalPeriod 	0
scalar DataCentricNet.host[67].net 	ignoreRatio 	0.67763157894737
scalar DataCentricNet.host[68].net 	NumberOfNeighbours 	6
scalar DataCentricNet.host[68].net 	TotalNeighborLqi 	784
scalar DataCentricNet.host[68].net 	AverageNeighborLqi 	130.66666666667
scalar DataCentricNet.host[68].net 	MaxNeighborLqi 	169
scalar DataCentricNet.host[68].net 	MinNeighborLqi 	26
scalar DataCentricNet.host[68].net 	TEST_LengthLatestInterestArrivalPeriod 	0
scalar DataCentricNet.host[68].net 	ignoreRatio 	0.63636363636364
scalar DataCentricNet.host[69].net 	NumberOfNeighbours 	2
scalar DataCentricNet.host[69].net 	TotalNeighborLqi 	267
scalar DataCentricNet.host[69].net 	AverageNeighborLqi 	133.5
scalar DataCentricNet.host[69].net 	MaxNeighborLqi 	151
scalar DataCentricNet.host[69].net 	MinNeighborLqi 	116
scalar DataCentricNet.host[69].net 	TEST_LengthLatestInterestArrivalPeriod 	0
scalar DataCentricNet.host[69].net 	ignoreRatio 	0.76271186440678
scalar DataCentricNet.host[70].net 	NumberOfNeighbours 	0
scalar DataCentricNet.host[70].net 	TotalNeighborLqi 	0
scalar DataCentricNet.host[70].net 	AverageNeighborLqi 	0
scalar DataCentricNet.host[70].net 	MaxNeighborLqi 	0
scalar DataCentricNet.host[70].net 	MinNeighborLqi 	0
scalar DataCentricNet.host[70].net 	TEST_LengthLatestInterestArrivalPeriod 	0
scalar DataCentricNet.host[70].net 	ignoreRatio 	0.70338983050847
scalar DataCentricNet.host[71].net 	NumberOfNeighbours 	9
scalar DataCentricNet.host[71].net 	TotalNeighborLqi 	1261
scalar DataCentricNet.host[71].net 	AverageNeighborLqi 	140.11111111111
scalar DataCentricNet.host[71].net 	MaxNeighborLqi 	169
scalar DataCentricNet.host[71].net 	MinNeighborLqi 	16
scalar DataCentricNet.host[71].net 	TEST_LengthLatestInterestArrivalPeriod 	0
scalar DataCentricNet.host[71].net 	ignoreRatio 	0.62142857142857
scalar DataCentricNet.host[72].net 	NumberOfNeighbours 	7
scalar DataCentricNet.host[72].net 	TotalNeighborLqi 	896
scalar DataCentricNet.host[72].net 	AverageNeighborLqi 	128
scalar DataCentricNet.host[72].net 	MaxNeighborLqi 	166
scalar DataCentricNet.host[72].net 	MinNeighborLqi 	1
scalar DataCentricNet.host[72].net 	TEST_LengthLatestInterestArrivalPeriod 	0
scalar DataCentricNet.host[72].net 	ignoreRatio 	0.72906403940887
scalar DataCentricNet.host[73].net 	NumberOfNeighbours 	4
scalar DataCentricNet.host[73].net 	TotalNeighborLqi 	567
scalar DataCentricNet.host[73].net 	AverageNeighborLqi 	141.75
scalar DataCentricNet.host[73].net 	MaxNeighborLqi 	153
scalar DataCentricNet.host[73].net 	MinNeighborLqi 	125
scalar DataCentricNet.host[73].net 	TEST_LengthLatestInterestArrivalPeriod 	0
scalar DataCentricNet.host[73].net 	ignoreRatio 	0.65060240963855
scalar DataCentricNet.host[74].net 	NumberOfNeighbours 	10
scalar DataCentricNet.host[74].net 	TotalNeighborLqi 	1198
scalar DataCentricNet.host[74].net 	AverageNeighborLqi 	119.8
scalar DataCentricNet.host[74].net 	MaxNeighborLqi 	164
scalar DataCentricNet.host[74].net 	MinNeighborLqi 	54
scalar DataCentricNet.host[74].net 	TEST_LengthLatestInterestArrivalPeriod 	0
scalar DataCentricNet.host[74].net 	ignoreRatio 	0.63703703703704
scalar DataCentricNet.host[75].net 	NumberOfNeighbours 	11
scalar DataCentricNet.host[75].net 	TotalNeighborLqi 	1197
scalar DataCentricNet.host[75].net 	AverageNeighborLqi 	108.81818181818
scalar DataCentricNet.host[75].net 	MaxNeighborLqi 	164
scalar DataCentricNet.host[75].net 	MinNeighborLqi 	35
scalar DataCentricNet.host[75].net 	TEST_LengthLatestInterestArrivalPeriod 	0
scalar DataCentricNet.host[75].net 	ignoreRatio 	0.66187050359712
scalar DataCentricNet.host[76].net 	NumberOfNeighbours 	11
scalar DataCentricNet.host[76].net 	TotalNeighborLqi 	1481
scalar DataCentricNet.host[76].net 	AverageNeighborLqi 	134.63636363636
scalar DataCentricNet.host[76].net 	MaxNeighborLqi 	169
scalar DataCentricNet.host[76].net 	MinNeighborLqi 	90
scalar DataCentricNet.host[76].net 	TEST_LengthLatestInterestArrivalPeriod 	0
scalar DataCentricNet.host[76].net 	ignoreRatio 	0.53667953667954
scalar DataCentricNet.host[77].net 	NumberOfNeighbours 	1
scalar DataCentricNet.host[77].net 	TotalNeighborLqi 	87
scalar DataCentricNet.host[77].net 	AverageNeighborLqi 	87
scalar DataCentricNet.host[77].net 	MaxNeighborLqi 	87
scalar DataCentricNet.host[77].net 	MinNeighborLqi 	87
scalar DataCentricNet.host[77].net 	TEST_LengthLatestInterestArrivalPeriod 	0
scalar DataCentricNet.host[77].net 	ignoreRatio 	0.63636363636364
scalar DataCentricNet.host[78].net 	NumberOfNeighbours 	7
scalar DataCentricNet.host[78].net 	TotalNeighborLqi 	927
scalar DataCentricNet.host[78].net 	AverageNeighborLqi 	132.42857142857
scalar DataCentricNet.host[78].net 	MaxNeighborLqi 	161
scalar DataCentricNet.host[78].net 	MinNeighborLqi 	82
scalar DataCentricNet.host[78].net 	TEST_LengthLatestInterestArrivalPeriod 	0
scalar DataCentricNet.host[78].net 	ignoreRatio 	0.68240343347639
scalar DataCentricNet.host[79].net 	NumberOfNeighbours 	10
scalar DataCentricNet.host[79].net 	TotalNeighborLqi 	994
scalar DataCentricNet.host[79].net 	AverageNeighborLqi 	99.4
scalar DataCentricNet.host[79].net 	MaxNeighborLqi 	164
scalar DataCentricNet.host[79].net 	MinNeighborLqi 	8
scalar DataCentricNet.host[79].net 	TEST_LengthLatestInterestArrivalPeriod 	0
scalar DataCentricNet.host[79].net 	ignoreRatio 	0.65037593984962
scalar DataCentricNet.host[80].net 	NumberOfNeighbours 	7
scalar DataCentricNet.host[80].net 	TotalNeighborLqi 	827
scalar DataCentricNet.host[80].net 	AverageNeighborLqi 	118.14285714286
scalar DataCentricNet.host[80].net 	MaxNeighborLqi 	156
scalar DataCentricNet.host[80].net 	MinNeighborLqi 	87
scalar DataCentricNet.host[80].net 	TEST_LengthLatestInterestArrivalPeriod 	0
scalar DataCentricNet.host[80].net 	ignoreRatio 	0.61666666666667
scalar DataCentricNet.host[81].net 	NumberOfNeighbours 	10
scalar DataCentricNet.host[81].net 	TotalNeighborLqi 	1083
scalar DataCentricNet.host[81].net 	AverageNeighborLqi 	108.3
scalar DataCentricNet.host[81].net 	MaxNeighborLqi 	164
scalar DataCentricNet.host[81].net 	MinNeighborLqi 	1
scalar DataCentricNet.host[81].net 	TEST_LengthLatestInterestArrivalPeriod 	0
scalar DataCentricNet.host[81].net 	ignoreRatio 	0.6145251396648
scalar DataCentricNet.host[82].net 	NumberOfNeighbours 	6
scalar DataCentricNet.host[82].net 	TotalNeighborLqi 	844
scalar DataCentricNet.host[82].net 	AverageNeighborLqi 	140.66666666667
scalar DataCentricNet.host[82].net 	MaxNeighborLqi 	156
scalar DataCentricNet.host[82].net 	MinNeighborLqi 	120
scalar DataCentricNet.host[82].net 	TEST_LengthLatestInterestArrivalPeriod 	0
scalar DataCentricNet.host[82].net 	ignoreRatio 	0.71212121212121
scalar DataCentricNet.host[83].net 	NumberOfNeighbours 	10
scalar DataCentricNet.host[83].net 	TotalNeighborLqi 	1108
scalar DataCentricNet.host[83].net 	AverageNeighborLqi 	110.8
scalar DataCentricNet.host[83].net 	MaxNeighborLqi 	164
scalar DataCentricNet.host[83].net 	MinNeighborLqi 	1
scalar DataCentricNet.host[83].net 	TEST_LengthLatestInterestArrivalPeriod 	0
scalar DataCentricNet.host[83].net 	ignoreRatio 	0.66911764705882
scalar DataCentricNet.host[84].net 	NumberOfNeighbours 	8
scalar DataCentricNet.host[84].net 	TotalNeighborLqi 	875
scalar DataCentricNet.host[84].net 	AverageNeighborLqi 	109.375
scalar DataCentricNet.host[84].net 	MaxNeighborLqi 	161
scalar DataCentricNet.host[84].net 	MinNeighborLqi 	44
scalar DataCentricNet.host[84].net 	TEST_LengthLatestInterestArrivalPeriod 	0
scalar DataCentricNet.host[84].net 	ignoreRatio 	0.50187265917603
scalar DataCentricNet.host[85].net 	NumberOfNeighbours 	9
scalar DataCentricNet.host[85].net 	TotalNeighborLqi 	771
scalar DataCentricNet.host[85].net 	AverageNeighborLqi 	85.666666666667
scalar DataCentricNet.host[85].net 	MaxNeighborLqi 	153
scalar DataCentricNet.host[85].net 	MinNeighborLqi 	1
scalar DataCentricNet.host[85].net 	TEST_LengthLatestInterestArrivalPeriod 	0
scalar DataCentricNet.host[85].net 	ignoreRatio 	0.54666666666667
scalar DataCentricNet.host[86].net 	NumberOfNeighbours 	3
scalar DataCentricNet.host[86].net 	TotalNeighborLqi 	414
scalar DataCentricNet.host[86].net 	AverageNeighborLqi 	138
scalar DataCentricNet.host[86].net 	MaxNeighborLqi 	166
scalar DataCentricNet.host[86].net 	MinNeighborLqi 	82
scalar DataCentricNet.host[86].net 	TEST_LengthLatestInterestArrivalPeriod 	0
scalar DataCentricNet.host[86].net 	ignoreRatio 	0.63068181818182
scalar DataCentricNet.host[87].net 	NumberOfNeighbours 	5
scalar DataCentricNet.host[87].net 	TotalNeighborLqi 	553
scalar DataCentricNet.host[87].net 	AverageNeighborLqi 	110.6
scalar DataCentricNet.host[87].net 	MaxNeighborLqi 	148
scalar DataCentricNet.host[87].net 	MinNeighborLqi 	77
scalar DataCentricNet.host[87].net 	TEST_LengthLatestInterestArrivalPeriod 	0
scalar DataCentricNet.host[87].net 	ignoreRatio 	0.74893617021277
scalar DataCentricNet.host[88].net 	NumberOfNeighbours 	11
scalar DataCentricNet.host[88].net 	TotalNeighborLqi 	1428
scalar DataCentricNet.host[88].net 	AverageNeighborLqi 	129.81818181818
scalar DataCentricNet.host[88].net 	MaxNeighborLqi 	252
scalar DataCentricNet.host[88].net 	MinNeighborLqi 	1
scalar DataCentricNet.host[88].net 	TEST_LengthLatestInterestArrivalPeriod 	0
scalar DataCentricNet.host[88].net 	ignoreRatio 	0.61603375527426
scalar DataCentricNet.host[89].net 	NumberOfNeighbours 	2
scalar DataCentricNet.host[89].net 	TotalNeighborLqi 	200
scalar DataCentricNet.host[89].net 	AverageNeighborLqi 	100
scalar DataCentricNet.host[89].net 	MaxNeighborLqi 	128
scalar DataCentricNet.host[89].net 	MinNeighborLqi 	72
scalar DataCentricNet.host[89].net 	TEST_LengthLatestInterestArrivalPeriod 	0
scalar DataCentricNet.host[89].net 	ignoreRatio 	0.76699029126214
scalar DataCentricNet.host[90].net 	NumberOfNeighbours 	6
scalar DataCentricNet.host[90].net 	TotalNeighborLqi 	842
scalar DataCentricNet.host[90].net 	AverageNeighborLqi 	140.33333333333
scalar DataCentricNet.host[90].net 	MaxNeighborLqi 	169
scalar DataCentricNet.host[90].net 	MinNeighborLqi 	115
scalar DataCentricNet.host[90].net 	TEST_LengthLatestInterestArrivalPeriod 	0
scalar DataCentricNet.host[90].net 	ignoreRatio 	0.6678445229682
scalar DataCentricNet.host[91].net 	NumberOfNeighbours 	2
scalar DataCentricNet.host[91].net 	TotalNeighborLqi 	246
scalar DataCentricNet.host[91].net 	AverageNeighborLqi 	123
scalar DataCentricNet.host[91].net 	MaxNeighborLqi 	151
scalar DataCentricNet.host[91].net 	MinNeighborLqi 	95
scalar DataCentricNet.host[91].net 	TEST_LengthLatestInterestArrivalPeriod 	0
scalar DataCentricNet.host[91].net 	ignoreRatio 	0.8375
scalar DataCentricNet.host[92].net 	NumberOfNeighbours 	10
scalar DataCentricNet.host[92].net 	TotalNeighborLqi 	963
scalar DataCentricNet.host[92].net 	AverageNeighborLqi 	96.3
scalar DataCentricNet.host[92].net 	MaxNeighborLqi 	156
scalar DataCentricNet.host[92].net 	MinNeighborLqi 	1
scalar DataCentricNet.host[92].net 	TEST_LengthLatestInterestArrivalPeriod 	0
scalar DataCentricNet.host[92].net 	ignoreRatio 	0.67432950191571
scalar DataCentricNet.host[93].net 	NumberOfNeighbours 	10
scalar DataCentricNet.host[93].net 	TotalNeighborLqi 	1165
scalar DataCentricNet.host[93].net 	AverageNeighborLqi 	116.5
scalar DataCentricNet.host[93].net 	MaxNeighborLqi 	169
scalar DataCentricNet.host[93].net 	MinNeighborLqi 	11
scalar DataCentricNet.host[93].net 	TEST_LengthLatestInterestArrivalPeriod 	0
scalar DataCentricNet.host[93].net 	ignoreRatio 	0.64566929133858
scalar DataCentricNet.host[94].net 	NumberOfNeighbours 	8
scalar DataCentricNet.host[94].net 	TotalNeighborLqi 	842
scalar DataCentricNet.host[94].net 	AverageNeighborLqi 	105.25
scalar DataCentricNet.host[94].net 	MaxNeighborLqi 	156
scalar DataCentricNet.host[94].net 	MinNeighborLqi 	1
scalar DataCentricNet.host[94].net 	TEST_LengthLatestInterestArrivalPeriod 	0
scalar DataCentricNet.host[94].net 	ignoreRatio 	0.72769953051643
scalar DataCentricNet.host[95].net 	NumberOfNeighbours 	8
scalar DataCentricNet.host[95].net 	TotalNeighborLqi 	673
scalar DataCentricNet.host[95].net 	AverageNeighborLqi 	84.125
scalar DataCentricNet.host[95].net 	MaxNeighborLqi 	146
scalar DataCentricNet.host[95].net 	MinNeighborLqi 	26
scalar DataCentricNet.host[95].net 	TEST_LengthLatestInterestArrivalPeriod 	0
scalar DataCentricNet.host[95].net 	ignoreRatio 	0.51739130434783
scalar DataCentricNet.dataCentricNetworkMan 	DataArrivals 	156
scalar DataCentricNet.dataCentricNetworkMan 	PercentageArrivals 	100
scalar DataCentricNet.dataCentricNetworkMan 	DataFailures 	0
scalar DataCentricNet.dataCentricNetworkMan 	PercentageFailures 	0
scalar DataCentricNet.dataCentricNetworkMan 	MeanE2EDelay 	0.022949190122609
scalar DataCentricNet.dataCentricNetworkMan 	StdDevE2EDelay 	0.017073110478025
scalar DataCentricNet.dataCentricNetworkMan 	MaxE2EDelay 	0.126678603825
scalar DataCentricNet.dataCentricNetworkMan 	MinE2EDelay 	0.003715453011
scalar DataCentricNet.dataCentricNetworkMan 	numControlPackets 	1039
scalar DataCentricNet.dataCentricNetworkMan 	MeanBPS 	0
scalar DataCentricNet.dataCentricNetworkMan 	StdDevBPS 	-1.#IND
scalar DataCentricNet.dataCentricNetworkMan 	MaxBPS 	0
scalar DataCentricNet.dataCentricNetworkMan 	MinBPS 	0
