version 2
run General-0-20120822-12:25:13-3212
attr configname General
attr datetime 20120822-12:25:13
attr experiment General
attr inifile omnetpp.ini
attr iterationvars ""
attr iterationvars2 $repetition=0
attr measurement ""
attr network DataCentricNet
attr processid 3212
attr repetition 0
attr replication #0
attr resultdir results
attr runnumber 0
attr seedset 0

scalar DataCentricNet.host[0].net 	NumberOfNeighbours 	10
scalar DataCentricNet.host[0].net 	TotalNeighborLqi 	1292
scalar DataCentricNet.host[0].net 	AverageNeighborLqi 	129.2
scalar DataCentricNet.host[0].net 	MaxNeighborLqi 	159
scalar DataCentricNet.host[0].net 	MinNeighborLqi 	74
scalar DataCentricNet.host[0].net 	TEST_LengthLatestInterestArrivalPeriod 	0.189249571942
scalar DataCentricNet.host[0].net 	ignoreRatio 	0.85355648535565
scalar DataCentricNet.host[1].net 	NumberOfNeighbours 	10
scalar DataCentricNet.host[1].net 	TotalNeighborLqi 	1448
scalar DataCentricNet.host[1].net 	AverageNeighborLqi 	144.8
scalar DataCentricNet.host[1].net 	MaxNeighborLqi 	169
scalar DataCentricNet.host[1].net 	MinNeighborLqi 	115
scalar DataCentricNet.host[1].net 	TEST_LengthLatestInterestArrivalPeriod 	0.177745897792
scalar DataCentricNet.host[1].net 	ignoreRatio 	0.86440677966102
scalar DataCentricNet.host[2].net 	NumberOfNeighbours 	10
scalar DataCentricNet.host[2].net 	TotalNeighborLqi 	1273
scalar DataCentricNet.host[2].net 	AverageNeighborLqi 	127.3
scalar DataCentricNet.host[2].net 	MaxNeighborLqi 	164
scalar DataCentricNet.host[2].net 	MinNeighborLqi 	64
scalar DataCentricNet.host[2].net 	TEST_LengthLatestInterestArrivalPeriod 	0.177745891554
scalar DataCentricNet.host[2].net 	ignoreRatio 	0.85593220338983
scalar DataCentricNet.host[3].net 	NumberOfNeighbours 	10
scalar DataCentricNet.host[3].net 	TotalNeighborLqi 	1277
scalar DataCentricNet.host[3].net 	AverageNeighborLqi 	127.7
scalar DataCentricNet.host[3].net 	MaxNeighborLqi 	166
scalar DataCentricNet.host[3].net 	MinNeighborLqi 	57
scalar DataCentricNet.host[3].net 	TEST_LengthLatestInterestArrivalPeriod 	0.178901005184
scalar DataCentricNet.host[3].net 	ignoreRatio 	0.84897959183673
scalar DataCentricNet.host[4].net 	NumberOfNeighbours 	10
scalar DataCentricNet.host[4].net 	TotalNeighborLqi 	1340
scalar DataCentricNet.host[4].net 	AverageNeighborLqi 	134
scalar DataCentricNet.host[4].net 	MaxNeighborLqi 	166
scalar DataCentricNet.host[4].net 	MinNeighborLqi 	72
scalar DataCentricNet.host[4].net 	TEST_LengthLatestInterestArrivalPeriod 	0.189249589434
scalar DataCentricNet.host[4].net 	ignoreRatio 	0.85106382978723
scalar DataCentricNet.host[5].net 	NumberOfNeighbours 	11
scalar DataCentricNet.host[5].net 	TotalNeighborLqi 	1376
scalar DataCentricNet.host[5].net 	AverageNeighborLqi 	125.09090909091
scalar DataCentricNet.host[5].net 	MaxNeighborLqi 	169
scalar DataCentricNet.host[5].net 	MinNeighborLqi 	13
scalar DataCentricNet.host[5].net 	TEST_LengthLatestInterestArrivalPeriod 	0.183587175424
scalar DataCentricNet.host[5].net 	ignoreRatio 	0.4937343358396
scalar DataCentricNet.host[6].net 	NumberOfNeighbours 	10
scalar DataCentricNet.host[6].net 	TotalNeighborLqi 	1386
scalar DataCentricNet.host[6].net 	AverageNeighborLqi 	138.6
scalar DataCentricNet.host[6].net 	MaxNeighborLqi 	159
scalar DataCentricNet.host[6].net 	MinNeighborLqi 	102
scalar DataCentricNet.host[6].net 	TEST_LengthLatestInterestArrivalPeriod 	0.189249584104
scalar DataCentricNet.host[6].net 	ignoreRatio 	0.85714285714286
scalar DataCentricNet.host[7].net 	NumberOfNeighbours 	10
scalar DataCentricNet.host[7].net 	TotalNeighborLqi 	1375
scalar DataCentricNet.host[7].net 	AverageNeighborLqi 	137.5
scalar DataCentricNet.host[7].net 	MaxNeighborLqi 	166
scalar DataCentricNet.host[7].net 	MinNeighborLqi 	100
scalar DataCentricNet.host[7].net 	TEST_LengthLatestInterestArrivalPeriod 	0.177745900197
scalar DataCentricNet.host[7].net 	ignoreRatio 	0.87295081967213
scalar DataCentricNet.host[8].net 	NumberOfNeighbours 	10
scalar DataCentricNet.host[8].net 	TotalNeighborLqi 	1429
scalar DataCentricNet.host[8].net 	AverageNeighborLqi 	142.9
scalar DataCentricNet.host[8].net 	MaxNeighborLqi 	169
scalar DataCentricNet.host[8].net 	MinNeighborLqi 	62
scalar DataCentricNet.host[8].net 	TEST_LengthLatestInterestArrivalPeriod 	0.189249583787
scalar DataCentricNet.host[8].net 	ignoreRatio 	0.86016949152542
scalar DataCentricNet.host[9].net 	NumberOfNeighbours 	11
scalar DataCentricNet.host[9].net 	TotalNeighborLqi 	1363
scalar DataCentricNet.host[9].net 	AverageNeighborLqi 	123.90909090909
scalar DataCentricNet.host[9].net 	MaxNeighborLqi 	159
scalar DataCentricNet.host[9].net 	MinNeighborLqi 	13
scalar DataCentricNet.host[9].net 	TEST_LengthLatestInterestArrivalPeriod 	0.189249586853
scalar DataCentricNet.host[9].net 	ignoreRatio 	0.81422924901186
scalar DataCentricNet.host[10].net 	NumberOfNeighbours 	10
scalar DataCentricNet.host[10].net 	TotalNeighborLqi 	1505
scalar DataCentricNet.host[10].net 	AverageNeighborLqi 	150.5
scalar DataCentricNet.host[10].net 	MaxNeighborLqi 	169
scalar DataCentricNet.host[10].net 	MinNeighborLqi 	131
scalar DataCentricNet.host[10].net 	TEST_LengthLatestInterestArrivalPeriod 	0.189249569724
scalar DataCentricNet.host[10].net 	ignoreRatio 	0.87234042553191
scalar DataCentricNet.host[11].net 	NumberOfNeighbours 	10
scalar DataCentricNet.host[11].net 	TotalNeighborLqi 	1389
scalar DataCentricNet.host[11].net 	AverageNeighborLqi 	138.9
scalar DataCentricNet.host[11].net 	MaxNeighborLqi 	164
scalar DataCentricNet.host[11].net 	MinNeighborLqi 	102
scalar DataCentricNet.host[11].net 	TEST_LengthLatestInterestArrivalPeriod 	0.177745867277
scalar DataCentricNet.host[11].net 	ignoreRatio 	0.85217391304348
scalar DataCentricNet.host[12].net 	NumberOfNeighbours 	10
scalar DataCentricNet.host[12].net 	TotalNeighborLqi 	1456
scalar DataCentricNet.host[12].net 	AverageNeighborLqi 	145.6
scalar DataCentricNet.host[12].net 	MaxNeighborLqi 	164
scalar DataCentricNet.host[12].net 	MinNeighborLqi 	123
scalar DataCentricNet.host[12].net 	TEST_LengthLatestInterestArrivalPeriod 	0.189249586956
scalar DataCentricNet.host[12].net 	ignoreRatio 	0.82730923694779
scalar DataCentricNet.host[13].net 	NumberOfNeighbours 	10
scalar DataCentricNet.host[13].net 	TotalNeighborLqi 	1411
scalar DataCentricNet.host[13].net 	AverageNeighborLqi 	141.1
scalar DataCentricNet.host[13].net 	MaxNeighborLqi 	166
scalar DataCentricNet.host[13].net 	MinNeighborLqi 	80
scalar DataCentricNet.host[13].net 	TEST_LengthLatestInterestArrivalPeriod 	0.177745907696
scalar DataCentricNet.host[13].net 	ignoreRatio 	0.8304347826087
scalar DataCentricNet.host[14].net 	NumberOfNeighbours 	10
scalar DataCentricNet.host[14].net 	TotalNeighborLqi 	1415
scalar DataCentricNet.host[14].net 	AverageNeighborLqi 	141.5
scalar DataCentricNet.host[14].net 	MaxNeighborLqi 	166
scalar DataCentricNet.host[14].net 	MinNeighborLqi 	115
scalar DataCentricNet.host[14].net 	TEST_LengthLatestInterestArrivalPeriod 	0.177745910767
scalar DataCentricNet.host[14].net 	ignoreRatio 	0.83898305084746
scalar DataCentricNet.host[15].net 	NumberOfNeighbours 	13
scalar DataCentricNet.host[15].net 	TotalNeighborLqi 	1468
scalar DataCentricNet.host[15].net 	AverageNeighborLqi 	112.92307692308
scalar DataCentricNet.host[15].net 	MaxNeighborLqi 	169
scalar DataCentricNet.host[15].net 	MinNeighborLqi 	13
scalar DataCentricNet.host[15].net 	TEST_LengthLatestInterestArrivalPeriod 	0.177745882421
scalar DataCentricNet.host[15].net 	ignoreRatio 	0.70877192982456
scalar DataCentricNet.host[16].net 	NumberOfNeighbours 	10
scalar DataCentricNet.host[16].net 	TotalNeighborLqi 	1398
scalar DataCentricNet.host[16].net 	AverageNeighborLqi 	139.8
scalar DataCentricNet.host[16].net 	MaxNeighborLqi 	166
scalar DataCentricNet.host[16].net 	MinNeighborLqi 	80
scalar DataCentricNet.host[16].net 	TEST_LengthLatestInterestArrivalPeriod 	0.177745845969
scalar DataCentricNet.host[16].net 	ignoreRatio 	0.87068965517241
scalar DataCentricNet.host[17].net 	NumberOfNeighbours 	10
scalar DataCentricNet.host[17].net 	TotalNeighborLqi 	1251
scalar DataCentricNet.host[17].net 	AverageNeighborLqi 	125.1
scalar DataCentricNet.host[17].net 	MaxNeighborLqi 	151
scalar DataCentricNet.host[17].net 	MinNeighborLqi 	108
scalar DataCentricNet.host[17].net 	TEST_LengthLatestInterestArrivalPeriod 	0.18924958933
scalar DataCentricNet.host[17].net 	ignoreRatio 	0.81854838709677
scalar DataCentricNet.host[18].net 	NumberOfNeighbours 	10
scalar DataCentricNet.host[18].net 	TotalNeighborLqi 	1473
scalar DataCentricNet.host[18].net 	AverageNeighborLqi 	147.3
scalar DataCentricNet.host[18].net 	MaxNeighborLqi 	166
scalar DataCentricNet.host[18].net 	MinNeighborLqi 	125
scalar DataCentricNet.host[18].net 	TEST_LengthLatestInterestArrivalPeriod 	0.177745912669
scalar DataCentricNet.host[18].net 	ignoreRatio 	0.85652173913043
scalar DataCentricNet.host[19].net 	NumberOfNeighbours 	10
scalar DataCentricNet.host[19].net 	TotalNeighborLqi 	1403
scalar DataCentricNet.host[19].net 	AverageNeighborLqi 	140.3
scalar DataCentricNet.host[19].net 	MaxNeighborLqi 	169
scalar DataCentricNet.host[19].net 	MinNeighborLqi 	95
scalar DataCentricNet.host[19].net 	TEST_LengthLatestInterestArrivalPeriod 	0.189249592879
scalar DataCentricNet.host[19].net 	ignoreRatio 	0.84873949579832
scalar DataCentricNet.host[20].net 	NumberOfNeighbours 	10
scalar DataCentricNet.host[20].net 	TotalNeighborLqi 	1413
scalar DataCentricNet.host[20].net 	AverageNeighborLqi 	141.3
scalar DataCentricNet.host[20].net 	MaxNeighborLqi 	164
scalar DataCentricNet.host[20].net 	MinNeighborLqi 	118
scalar DataCentricNet.host[20].net 	TEST_LengthLatestInterestArrivalPeriod 	0.189249593298
scalar DataCentricNet.host[20].net 	ignoreRatio 	0.83471074380165
scalar DataCentricNet.host[21].net 	NumberOfNeighbours 	11
scalar DataCentricNet.host[21].net 	TotalNeighborLqi 	1401
scalar DataCentricNet.host[21].net 	AverageNeighborLqi 	127.36363636364
scalar DataCentricNet.host[21].net 	MaxNeighborLqi 	169
scalar DataCentricNet.host[21].net 	MinNeighborLqi 	13
scalar DataCentricNet.host[21].net 	TEST_LengthLatestInterestArrivalPeriod 	0.189249577415
scalar DataCentricNet.host[21].net 	ignoreRatio 	0.7906976744186
scalar DataCentricNet.host[22].net 	NumberOfNeighbours 	10
scalar DataCentricNet.host[22].net 	TotalNeighborLqi 	1256
scalar DataCentricNet.host[22].net 	AverageNeighborLqi 	125.6
scalar DataCentricNet.host[22].net 	MaxNeighborLqi 	156
scalar DataCentricNet.host[22].net 	MinNeighborLqi 	64
scalar DataCentricNet.host[22].net 	TEST_LengthLatestInterestArrivalPeriod 	0.189249588128
scalar DataCentricNet.host[22].net 	ignoreRatio 	0.80658436213992
scalar DataCentricNet.host[23].net 	NumberOfNeighbours 	10
scalar DataCentricNet.host[23].net 	TotalNeighborLqi 	1333
scalar DataCentricNet.host[23].net 	AverageNeighborLqi 	133.3
scalar DataCentricNet.host[23].net 	MaxNeighborLqi 	169
scalar DataCentricNet.host[23].net 	MinNeighborLqi 	77
scalar DataCentricNet.host[23].net 	TEST_LengthLatestInterestArrivalPeriod 	0.189249569539
scalar DataCentricNet.host[23].net 	ignoreRatio 	0.86147186147186
scalar DataCentricNet.host[24].net 	NumberOfNeighbours 	10
scalar DataCentricNet.host[24].net 	TotalNeighborLqi 	1318
scalar DataCentricNet.host[24].net 	AverageNeighborLqi 	131.8
scalar DataCentricNet.host[24].net 	MaxNeighborLqi 	169
scalar DataCentricNet.host[24].net 	MinNeighborLqi 	87
scalar DataCentricNet.host[24].net 	TEST_LengthLatestInterestArrivalPeriod 	0.189249587747
scalar DataCentricNet.host[24].net 	ignoreRatio 	0.82730923694779
scalar DataCentricNet.host[25].net 	NumberOfNeighbours 	11
scalar DataCentricNet.host[25].net 	TotalNeighborLqi 	1354
scalar DataCentricNet.host[25].net 	AverageNeighborLqi 	123.09090909091
scalar DataCentricNet.host[25].net 	MaxNeighborLqi 	169
scalar DataCentricNet.host[25].net 	MinNeighborLqi 	13
scalar DataCentricNet.host[25].net 	TEST_LengthLatestInterestArrivalPeriod 	0.177745873282
scalar DataCentricNet.host[25].net 	ignoreRatio 	0.84848484848485
scalar DataCentricNet.host[26].net 	NumberOfNeighbours 	10
scalar DataCentricNet.host[26].net 	TotalNeighborLqi 	1378
scalar DataCentricNet.host[26].net 	AverageNeighborLqi 	137.8
scalar DataCentricNet.host[26].net 	MaxNeighborLqi 	169
scalar DataCentricNet.host[26].net 	MinNeighborLqi 	87
scalar DataCentricNet.host[26].net 	TEST_LengthLatestInterestArrivalPeriod 	0.189249578615
scalar DataCentricNet.host[26].net 	ignoreRatio 	0.85355648535565
scalar DataCentricNet.host[27].net 	NumberOfNeighbours 	10
scalar DataCentricNet.host[27].net 	TotalNeighborLqi 	1363
scalar DataCentricNet.host[27].net 	AverageNeighborLqi 	136.3
scalar DataCentricNet.host[27].net 	MaxNeighborLqi 	166
scalar DataCentricNet.host[27].net 	MinNeighborLqi 	62
scalar DataCentricNet.host[27].net 	TEST_LengthLatestInterestArrivalPeriod 	0.189249581053
scalar DataCentricNet.host[27].net 	ignoreRatio 	0.85185185185185
scalar DataCentricNet.host[28].net 	NumberOfNeighbours 	10
scalar DataCentricNet.host[28].net 	TotalNeighborLqi 	1250
scalar DataCentricNet.host[28].net 	AverageNeighborLqi 	125
scalar DataCentricNet.host[28].net 	MaxNeighborLqi 	151
scalar DataCentricNet.host[28].net 	MinNeighborLqi 	90
scalar DataCentricNet.host[28].net 	TEST_LengthLatestInterestArrivalPeriod 	0.189249587341
scalar DataCentricNet.host[28].net 	ignoreRatio 	0.80971659919028
scalar DataCentricNet.host[29].net 	NumberOfNeighbours 	10
scalar DataCentricNet.host[29].net 	TotalNeighborLqi 	1418
scalar DataCentricNet.host[29].net 	AverageNeighborLqi 	141.8
scalar DataCentricNet.host[29].net 	MaxNeighborLqi 	159
scalar DataCentricNet.host[29].net 	MinNeighborLqi 	97
scalar DataCentricNet.host[29].net 	TEST_LengthLatestInterestArrivalPeriod 	0.17774590838
scalar DataCentricNet.host[29].net 	ignoreRatio 	0.86842105263158
scalar DataCentricNet.host[30].net 	NumberOfNeighbours 	10
scalar DataCentricNet.host[30].net 	TotalNeighborLqi 	1176
scalar DataCentricNet.host[30].net 	AverageNeighborLqi 	117.6
scalar DataCentricNet.host[30].net 	MaxNeighborLqi 	143
scalar DataCentricNet.host[30].net 	MinNeighborLqi 	54
scalar DataCentricNet.host[30].net 	TEST_LengthLatestInterestArrivalPeriod 	0.189249586944
scalar DataCentricNet.host[30].net 	ignoreRatio 	0.8130081300813
scalar DataCentricNet.host[31].net 	NumberOfNeighbours 	10
scalar DataCentricNet.host[31].net 	TotalNeighborLqi 	1286
scalar DataCentricNet.host[31].net 	AverageNeighborLqi 	128.6
scalar DataCentricNet.host[31].net 	MaxNeighborLqi 	166
scalar DataCentricNet.host[31].net 	MinNeighborLqi 	85
scalar DataCentricNet.host[31].net 	TEST_LengthLatestInterestArrivalPeriod 	0.189249592525
scalar DataCentricNet.host[31].net 	ignoreRatio 	0.84426229508197
scalar DataCentricNet.host[32].net 	NumberOfNeighbours 	13
scalar DataCentricNet.host[32].net 	TotalNeighborLqi 	1303
scalar DataCentricNet.host[32].net 	AverageNeighborLqi 	100.23076923077
scalar DataCentricNet.host[32].net 	MaxNeighborLqi 	169
scalar DataCentricNet.host[32].net 	MinNeighborLqi 	13
scalar DataCentricNet.host[32].net 	TEST_LengthLatestInterestArrivalPeriod 	0.189249570165
scalar DataCentricNet.host[32].net 	ignoreRatio 	0.71080139372822
scalar DataCentricNet.host[33].net 	NumberOfNeighbours 	10
scalar DataCentricNet.host[33].net 	TotalNeighborLqi 	1388
scalar DataCentricNet.host[33].net 	AverageNeighborLqi 	138.8
scalar DataCentricNet.host[33].net 	MaxNeighborLqi 	166
scalar DataCentricNet.host[33].net 	MinNeighborLqi 	92
scalar DataCentricNet.host[33].net 	TEST_LengthLatestInterestArrivalPeriod 	0.189249573893
scalar DataCentricNet.host[33].net 	ignoreRatio 	0.86206896551724
scalar DataCentricNet.host[34].net 	NumberOfNeighbours 	10
scalar DataCentricNet.host[34].net 	TotalNeighborLqi 	1427
scalar DataCentricNet.host[34].net 	AverageNeighborLqi 	142.7
scalar DataCentricNet.host[34].net 	MaxNeighborLqi 	169
scalar DataCentricNet.host[34].net 	MinNeighborLqi 	108
scalar DataCentricNet.host[34].net 	TEST_LengthLatestInterestArrivalPeriod 	0.189249570071
scalar DataCentricNet.host[34].net 	ignoreRatio 	0.85589519650655
scalar DataCentricNet.host[35].net 	NumberOfNeighbours 	10
scalar DataCentricNet.host[35].net 	TotalNeighborLqi 	1479
scalar DataCentricNet.host[35].net 	AverageNeighborLqi 	147.9
scalar DataCentricNet.host[35].net 	MaxNeighborLqi 	169
scalar DataCentricNet.host[35].net 	MinNeighborLqi 	95
scalar DataCentricNet.host[35].net 	TEST_LengthLatestInterestArrivalPeriod 	0.189249585416
scalar DataCentricNet.host[35].net 	ignoreRatio 	0.82857142857143
scalar DataCentricNet.host[36].net 	NumberOfNeighbours 	10
scalar DataCentricNet.host[36].net 	TotalNeighborLqi 	1362
scalar DataCentricNet.host[36].net 	AverageNeighborLqi 	136.2
scalar DataCentricNet.host[36].net 	MaxNeighborLqi 	166
scalar DataCentricNet.host[36].net 	MinNeighborLqi 	95
scalar DataCentricNet.host[36].net 	TEST_LengthLatestInterestArrivalPeriod 	0.189249568576
scalar DataCentricNet.host[36].net 	ignoreRatio 	0.85714285714286
scalar DataCentricNet.host[37].net 	NumberOfNeighbours 	10
scalar DataCentricNet.host[37].net 	TotalNeighborLqi 	1434
scalar DataCentricNet.host[37].net 	AverageNeighborLqi 	143.4
scalar DataCentricNet.host[37].net 	MaxNeighborLqi 	164
scalar DataCentricNet.host[37].net 	MinNeighborLqi 	102
scalar DataCentricNet.host[37].net 	TEST_LengthLatestInterestArrivalPeriod 	0.17774590985
scalar DataCentricNet.host[37].net 	ignoreRatio 	0.8646288209607
scalar DataCentricNet.host[38].net 	NumberOfNeighbours 	10
scalar DataCentricNet.host[38].net 	TotalNeighborLqi 	1316
scalar DataCentricNet.host[38].net 	AverageNeighborLqi 	131.6
scalar DataCentricNet.host[38].net 	MaxNeighborLqi 	161
scalar DataCentricNet.host[38].net 	MinNeighborLqi 	95
scalar DataCentricNet.host[38].net 	TEST_LengthLatestInterestArrivalPeriod 	0.189249591068
scalar DataCentricNet.host[38].net 	ignoreRatio 	0.84453781512605
scalar DataCentricNet.host[39].net 	NumberOfNeighbours 	11
scalar DataCentricNet.host[39].net 	TotalNeighborLqi 	1383
scalar DataCentricNet.host[39].net 	AverageNeighborLqi 	125.72727272727
scalar DataCentricNet.host[39].net 	MaxNeighborLqi 	169
scalar DataCentricNet.host[39].net 	MinNeighborLqi 	13
scalar DataCentricNet.host[39].net 	TEST_LengthLatestInterestArrivalPeriod 	0.189249589736
scalar DataCentricNet.host[39].net 	ignoreRatio 	0.76717557251908
scalar DataCentricNet.host[40].net 	NumberOfNeighbours 	10
scalar DataCentricNet.host[40].net 	TotalNeighborLqi 	1393
scalar DataCentricNet.host[40].net 	AverageNeighborLqi 	139.3
scalar DataCentricNet.host[40].net 	MaxNeighborLqi 	164
scalar DataCentricNet.host[40].net 	MinNeighborLqi 	80
scalar DataCentricNet.host[40].net 	TEST_LengthLatestInterestArrivalPeriod 	0.189249589808
scalar DataCentricNet.host[40].net 	ignoreRatio 	0.86134453781513
scalar DataCentricNet.host[41].net 	NumberOfNeighbours 	10
scalar DataCentricNet.host[41].net 	TotalNeighborLqi 	1317
scalar DataCentricNet.host[41].net 	AverageNeighborLqi 	131.7
scalar DataCentricNet.host[41].net 	MaxNeighborLqi 	161
scalar DataCentricNet.host[41].net 	MinNeighborLqi 	74
scalar DataCentricNet.host[41].net 	TEST_LengthLatestInterestArrivalPeriod 	0.178901013004
scalar DataCentricNet.host[41].net 	ignoreRatio 	0.86192468619247
scalar DataCentricNet.host[42].net 	NumberOfNeighbours 	10
scalar DataCentricNet.host[42].net 	TotalNeighborLqi 	1387
scalar DataCentricNet.host[42].net 	AverageNeighborLqi 	138.7
scalar DataCentricNet.host[42].net 	MaxNeighborLqi 	169
scalar DataCentricNet.host[42].net 	MinNeighborLqi 	82
scalar DataCentricNet.host[42].net 	TEST_LengthLatestInterestArrivalPeriod 	0.177745858481
scalar DataCentricNet.host[42].net 	ignoreRatio 	0.85531914893617
scalar DataCentricNet.host[43].net 	NumberOfNeighbours 	10
scalar DataCentricNet.host[43].net 	TotalNeighborLqi 	1328
scalar DataCentricNet.host[43].net 	AverageNeighborLqi 	132.8
scalar DataCentricNet.host[43].net 	MaxNeighborLqi 	164
scalar DataCentricNet.host[43].net 	MinNeighborLqi 	31
scalar DataCentricNet.host[43].net 	TEST_LengthLatestInterestArrivalPeriod 	0.177745896861
scalar DataCentricNet.host[43].net 	ignoreRatio 	0.84210526315789
scalar DataCentricNet.host[44].net 	NumberOfNeighbours 	10
scalar DataCentricNet.host[44].net 	TotalNeighborLqi 	1436
scalar DataCentricNet.host[44].net 	AverageNeighborLqi 	143.6
scalar DataCentricNet.host[44].net 	MaxNeighborLqi 	164
scalar DataCentricNet.host[44].net 	MinNeighborLqi 	125
scalar DataCentricNet.host[44].net 	TEST_LengthLatestInterestArrivalPeriod 	0.189249587322
scalar DataCentricNet.host[44].net 	ignoreRatio 	0.80952380952381
scalar DataCentricNet.host[45].net 	NumberOfNeighbours 	10
scalar DataCentricNet.host[45].net 	TotalNeighborLqi 	1400
scalar DataCentricNet.host[45].net 	AverageNeighborLqi 	140
scalar DataCentricNet.host[45].net 	MaxNeighborLqi 	169
scalar DataCentricNet.host[45].net 	MinNeighborLqi 	74
scalar DataCentricNet.host[45].net 	TEST_LengthLatestInterestArrivalPeriod 	0.177745892897
scalar DataCentricNet.host[45].net 	ignoreRatio 	0.85169491525424
scalar DataCentricNet.host[46].net 	NumberOfNeighbours 	10
scalar DataCentricNet.host[46].net 	TotalNeighborLqi 	1427
scalar DataCentricNet.host[46].net 	AverageNeighborLqi 	142.7
scalar DataCentricNet.host[46].net 	MaxNeighborLqi 	169
scalar DataCentricNet.host[46].net 	MinNeighborLqi 	92
scalar DataCentricNet.host[46].net 	TEST_LengthLatestInterestArrivalPeriod 	0.183587173804
scalar DataCentricNet.host[46].net 	ignoreRatio 	0.84051724137931
scalar DataCentricNet.host[47].net 	NumberOfNeighbours 	10
scalar DataCentricNet.host[47].net 	TotalNeighborLqi 	1358
scalar DataCentricNet.host[47].net 	AverageNeighborLqi 	135.8
scalar DataCentricNet.host[47].net 	MaxNeighborLqi 	166
scalar DataCentricNet.host[47].net 	MinNeighborLqi 	82
scalar DataCentricNet.host[47].net 	TEST_LengthLatestInterestArrivalPeriod 	0.17774589977
scalar DataCentricNet.host[47].net 	ignoreRatio 	0.85483870967742
scalar DataCentricNet.host[48].net 	NumberOfNeighbours 	11
scalar DataCentricNet.host[48].net 	TotalNeighborLqi 	1500
scalar DataCentricNet.host[48].net 	AverageNeighborLqi 	136.36363636364
scalar DataCentricNet.host[48].net 	MaxNeighborLqi 	169
scalar DataCentricNet.host[48].net 	MinNeighborLqi 	13
scalar DataCentricNet.host[48].net 	TEST_LengthLatestInterestArrivalPeriod 	0.17774589075
scalar DataCentricNet.host[48].net 	ignoreRatio 	0.8326359832636
scalar DataCentricNet.host[49].net 	NumberOfNeighbours 	10
scalar DataCentricNet.host[49].net 	TotalNeighborLqi 	1479
scalar DataCentricNet.host[49].net 	AverageNeighborLqi 	147.9
scalar DataCentricNet.host[49].net 	MaxNeighborLqi 	166
scalar DataCentricNet.host[49].net 	MinNeighborLqi 	133
scalar DataCentricNet.host[49].net 	TEST_LengthLatestInterestArrivalPeriod 	0.177745887289
scalar DataCentricNet.host[49].net 	ignoreRatio 	0.85344827586207
scalar DataCentricNet.host[50].net 	NumberOfNeighbours 	10
scalar DataCentricNet.host[50].net 	TotalNeighborLqi 	1336
scalar DataCentricNet.host[50].net 	AverageNeighborLqi 	133.6
scalar DataCentricNet.host[50].net 	MaxNeighborLqi 	156
scalar DataCentricNet.host[50].net 	MinNeighborLqi 	85
scalar DataCentricNet.host[50].net 	TEST_LengthLatestInterestArrivalPeriod 	0.189249588649
scalar DataCentricNet.host[50].net 	ignoreRatio 	0.84549356223176
scalar DataCentricNet.host[51].net 	NumberOfNeighbours 	11
scalar DataCentricNet.host[51].net 	TotalNeighborLqi 	1544
scalar DataCentricNet.host[51].net 	AverageNeighborLqi 	140.36363636364
scalar DataCentricNet.host[51].net 	MaxNeighborLqi 	166
scalar DataCentricNet.host[51].net 	MinNeighborLqi 	13
scalar DataCentricNet.host[51].net 	TEST_LengthLatestInterestArrivalPeriod 	0.189249584579
scalar DataCentricNet.host[51].net 	ignoreRatio 	0.84647302904564
scalar DataCentricNet.host[52].net 	NumberOfNeighbours 	10
scalar DataCentricNet.host[52].net 	TotalNeighborLqi 	1461
scalar DataCentricNet.host[52].net 	AverageNeighborLqi 	146.1
scalar DataCentricNet.host[52].net 	MaxNeighborLqi 	166
scalar DataCentricNet.host[52].net 	MinNeighborLqi 	131
scalar DataCentricNet.host[52].net 	TEST_LengthLatestInterestArrivalPeriod 	0.189249581972
scalar DataCentricNet.host[52].net 	ignoreRatio 	0.83829787234043
scalar DataCentricNet.host[53].net 	NumberOfNeighbours 	10
scalar DataCentricNet.host[53].net 	TotalNeighborLqi 	1475
scalar DataCentricNet.host[53].net 	AverageNeighborLqi 	147.5
scalar DataCentricNet.host[53].net 	MaxNeighborLqi 	166
scalar DataCentricNet.host[53].net 	MinNeighborLqi 	100
scalar DataCentricNet.host[53].net 	TEST_LengthLatestInterestArrivalPeriod 	0.189249584275
scalar DataCentricNet.host[53].net 	ignoreRatio 	0.84677419354839
scalar DataCentricNet.host[54].net 	NumberOfNeighbours 	10
scalar DataCentricNet.host[54].net 	TotalNeighborLqi 	1398
scalar DataCentricNet.host[54].net 	AverageNeighborLqi 	139.8
scalar DataCentricNet.host[54].net 	MaxNeighborLqi 	164
scalar DataCentricNet.host[54].net 	MinNeighborLqi 	74
scalar DataCentricNet.host[54].net 	TEST_LengthLatestInterestArrivalPeriod 	0.177745885997
scalar DataCentricNet.host[54].net 	ignoreRatio 	0.84415584415584
scalar DataCentricNet.host[55].net 	NumberOfNeighbours 	10
scalar DataCentricNet.host[55].net 	TotalNeighborLqi 	1313
scalar DataCentricNet.host[55].net 	AverageNeighborLqi 	131.3
scalar DataCentricNet.host[55].net 	MaxNeighborLqi 	164
scalar DataCentricNet.host[55].net 	MinNeighborLqi 	80
scalar DataCentricNet.host[55].net 	TEST_LengthLatestInterestArrivalPeriod 	0.154798096577
scalar DataCentricNet.host[55].net 	ignoreRatio 	0.66225165562914
scalar DataCentricNet.host[56].net 	NumberOfNeighbours 	10
scalar DataCentricNet.host[56].net 	TotalNeighborLqi 	1366
scalar DataCentricNet.host[56].net 	AverageNeighborLqi 	136.6
scalar DataCentricNet.host[56].net 	MaxNeighborLqi 	169
scalar DataCentricNet.host[56].net 	MinNeighborLqi 	80
scalar DataCentricNet.host[56].net 	TEST_LengthLatestInterestArrivalPeriod 	0.177745896699
scalar DataCentricNet.host[56].net 	ignoreRatio 	0.85892116182573
scalar DataCentricNet.host[57].net 	NumberOfNeighbours 	10
scalar DataCentricNet.host[57].net 	TotalNeighborLqi 	1377
scalar DataCentricNet.host[57].net 	AverageNeighborLqi 	137.7
scalar DataCentricNet.host[57].net 	MaxNeighborLqi 	164
scalar DataCentricNet.host[57].net 	MinNeighborLqi 	95
scalar DataCentricNet.host[57].net 	TEST_LengthLatestInterestArrivalPeriod 	0.189249577834
scalar DataCentricNet.host[57].net 	ignoreRatio 	0.86554621848739
scalar DataCentricNet.host[58].net 	NumberOfNeighbours 	10
scalar DataCentricNet.host[58].net 	TotalNeighborLqi 	1382
scalar DataCentricNet.host[58].net 	AverageNeighborLqi 	138.2
scalar DataCentricNet.host[58].net 	MaxNeighborLqi 	164
scalar DataCentricNet.host[58].net 	MinNeighborLqi 	102
scalar DataCentricNet.host[58].net 	TEST_LengthLatestInterestArrivalPeriod 	0.177745858787
scalar DataCentricNet.host[58].net 	ignoreRatio 	0.83333333333333
scalar DataCentricNet.host[59].net 	NumberOfNeighbours 	10
scalar DataCentricNet.host[59].net 	TotalNeighborLqi 	1364
scalar DataCentricNet.host[59].net 	AverageNeighborLqi 	136.4
scalar DataCentricNet.host[59].net 	MaxNeighborLqi 	166
scalar DataCentricNet.host[59].net 	MinNeighborLqi 	41
scalar DataCentricNet.host[59].net 	TEST_LengthLatestInterestArrivalPeriod 	0.183587172994
scalar DataCentricNet.host[59].net 	ignoreRatio 	0.83474576271186
scalar DataCentricNet.host[60].net 	NumberOfNeighbours 	10
scalar DataCentricNet.host[60].net 	TotalNeighborLqi 	1389
scalar DataCentricNet.host[60].net 	AverageNeighborLqi 	138.9
scalar DataCentricNet.host[60].net 	MaxNeighborLqi 	159
scalar DataCentricNet.host[60].net 	MinNeighborLqi 	105
scalar DataCentricNet.host[60].net 	TEST_LengthLatestInterestArrivalPeriod 	0.189249593157
scalar DataCentricNet.host[60].net 	ignoreRatio 	0.81932773109244
scalar DataCentricNet.host[61].net 	NumberOfNeighbours 	10
scalar DataCentricNet.host[61].net 	TotalNeighborLqi 	1415
scalar DataCentricNet.host[61].net 	AverageNeighborLqi 	141.5
scalar DataCentricNet.host[61].net 	MaxNeighborLqi 	166
scalar DataCentricNet.host[61].net 	MinNeighborLqi 	110
scalar DataCentricNet.host[61].net 	TEST_LengthLatestInterestArrivalPeriod 	0.189249586217
scalar DataCentricNet.host[61].net 	ignoreRatio 	0.824
scalar DataCentricNet.host[62].net 	NumberOfNeighbours 	10
scalar DataCentricNet.host[62].net 	TotalNeighborLqi 	1327
scalar DataCentricNet.host[62].net 	AverageNeighborLqi 	132.7
scalar DataCentricNet.host[62].net 	MaxNeighborLqi 	169
scalar DataCentricNet.host[62].net 	MinNeighborLqi 	57
scalar DataCentricNet.host[62].net 	TEST_LengthLatestInterestArrivalPeriod 	0.177745909796
scalar DataCentricNet.host[62].net 	ignoreRatio 	0.85042735042735
scalar DataCentricNet.host[63].net 	NumberOfNeighbours 	10
scalar DataCentricNet.host[63].net 	TotalNeighborLqi 	1384
scalar DataCentricNet.host[63].net 	AverageNeighborLqi 	138.4
scalar DataCentricNet.host[63].net 	MaxNeighborLqi 	164
scalar DataCentricNet.host[63].net 	MinNeighborLqi 	100
scalar DataCentricNet.host[63].net 	TEST_LengthLatestInterestArrivalPeriod 	0.189249592684
scalar DataCentricNet.host[63].net 	ignoreRatio 	0.83739837398374
scalar DataCentricNet.host[64].net 	NumberOfNeighbours 	11
scalar DataCentricNet.host[64].net 	TotalNeighborLqi 	1390
scalar DataCentricNet.host[64].net 	AverageNeighborLqi 	126.36363636364
scalar DataCentricNet.host[64].net 	MaxNeighborLqi 	159
scalar DataCentricNet.host[64].net 	MinNeighborLqi 	13
scalar DataCentricNet.host[64].net 	TEST_LengthLatestInterestArrivalPeriod 	0.189249573295
scalar DataCentricNet.host[64].net 	ignoreRatio 	0.86343612334802
scalar DataCentricNet.host[65].net 	NumberOfNeighbours 	10
scalar DataCentricNet.host[65].net 	TotalNeighborLqi 	1429
scalar DataCentricNet.host[65].net 	AverageNeighborLqi 	142.9
scalar DataCentricNet.host[65].net 	MaxNeighborLqi 	166
scalar DataCentricNet.host[65].net 	MinNeighborLqi 	115
scalar DataCentricNet.host[65].net 	TEST_LengthLatestInterestArrivalPeriod 	0.177745858625
scalar DataCentricNet.host[65].net 	ignoreRatio 	0.85654008438819
scalar DataCentricNet.host[66].net 	NumberOfNeighbours 	10
scalar DataCentricNet.host[66].net 	TotalNeighborLqi 	1408
scalar DataCentricNet.host[66].net 	AverageNeighborLqi 	140.8
scalar DataCentricNet.host[66].net 	MaxNeighborLqi 	166
scalar DataCentricNet.host[66].net 	MinNeighborLqi 	69
scalar DataCentricNet.host[66].net 	TEST_LengthLatestInterestArrivalPeriod 	0.189249594126
scalar DataCentricNet.host[66].net 	ignoreRatio 	0.83471074380165
scalar DataCentricNet.host[67].net 	NumberOfNeighbours 	10
scalar DataCentricNet.host[67].net 	TotalNeighborLqi 	1322
scalar DataCentricNet.host[67].net 	AverageNeighborLqi 	132.2
scalar DataCentricNet.host[67].net 	MaxNeighborLqi 	161
scalar DataCentricNet.host[67].net 	MinNeighborLqi 	77
scalar DataCentricNet.host[67].net 	TEST_LengthLatestInterestArrivalPeriod 	0.189249587578
scalar DataCentricNet.host[67].net 	ignoreRatio 	0.82786885245902
scalar DataCentricNet.host[68].net 	NumberOfNeighbours 	10
scalar DataCentricNet.host[68].net 	TotalNeighborLqi 	1522
scalar DataCentricNet.host[68].net 	AverageNeighborLqi 	152.2
scalar DataCentricNet.host[68].net 	MaxNeighborLqi 	169
scalar DataCentricNet.host[68].net 	MinNeighborLqi 	118
scalar DataCentricNet.host[68].net 	TEST_LengthLatestInterestArrivalPeriod 	0.189249584385
scalar DataCentricNet.host[68].net 	ignoreRatio 	0.83471074380165
scalar DataCentricNet.host[69].net 	NumberOfNeighbours 	10
scalar DataCentricNet.host[69].net 	TotalNeighborLqi 	1378
scalar DataCentricNet.host[69].net 	AverageNeighborLqi 	137.8
scalar DataCentricNet.host[69].net 	MaxNeighborLqi 	166
scalar DataCentricNet.host[69].net 	MinNeighborLqi 	59
scalar DataCentricNet.host[69].net 	TEST_LengthLatestInterestArrivalPeriod 	0.189249590489
scalar DataCentricNet.host[69].net 	ignoreRatio 	0.8595041322314
scalar DataCentricNet.host[70].net 	NumberOfNeighbours 	10
scalar DataCentricNet.host[70].net 	TotalNeighborLqi 	1441
scalar DataCentricNet.host[70].net 	AverageNeighborLqi 	144.1
scalar DataCentricNet.host[70].net 	MaxNeighborLqi 	169
scalar DataCentricNet.host[70].net 	MinNeighborLqi 	97
scalar DataCentricNet.host[70].net 	TEST_LengthLatestInterestArrivalPeriod 	0.189249583345
scalar DataCentricNet.host[70].net 	ignoreRatio 	0.86885245901639
scalar DataCentricNet.host[71].net 	NumberOfNeighbours 	10
scalar DataCentricNet.host[71].net 	TotalNeighborLqi 	1398
scalar DataCentricNet.host[71].net 	AverageNeighborLqi 	139.8
scalar DataCentricNet.host[71].net 	MaxNeighborLqi 	169
scalar DataCentricNet.host[71].net 	MinNeighborLqi 	87
scalar DataCentricNet.host[71].net 	TEST_LengthLatestInterestArrivalPeriod 	0.177745902981
scalar DataCentricNet.host[71].net 	ignoreRatio 	0.88163265306122
scalar DataCentricNet.host[72].net 	NumberOfNeighbours 	11
scalar DataCentricNet.host[72].net 	TotalNeighborLqi 	1466
scalar DataCentricNet.host[72].net 	AverageNeighborLqi 	133.27272727273
scalar DataCentricNet.host[72].net 	MaxNeighborLqi 	169
scalar DataCentricNet.host[72].net 	MinNeighborLqi 	13
scalar DataCentricNet.host[72].net 	TEST_LengthLatestInterestArrivalPeriod 	0.18358716416
scalar DataCentricNet.host[72].net 	ignoreRatio 	0.85836909871245
scalar DataCentricNet.host[73].net 	NumberOfNeighbours 	10
scalar DataCentricNet.host[73].net 	TotalNeighborLqi 	1387
scalar DataCentricNet.host[73].net 	AverageNeighborLqi 	138.7
scalar DataCentricNet.host[73].net 	MaxNeighborLqi 	169
scalar DataCentricNet.host[73].net 	MinNeighborLqi 	100
scalar DataCentricNet.host[73].net 	TEST_LengthLatestInterestArrivalPeriod 	0.189249578974
scalar DataCentricNet.host[73].net 	ignoreRatio 	0.85365853658537
scalar DataCentricNet.host[74].net 	NumberOfNeighbours 	10
scalar DataCentricNet.host[74].net 	TotalNeighborLqi 	1368
scalar DataCentricNet.host[74].net 	AverageNeighborLqi 	136.8
scalar DataCentricNet.host[74].net 	MaxNeighborLqi 	159
scalar DataCentricNet.host[74].net 	MinNeighborLqi 	80
scalar DataCentricNet.host[74].net 	TEST_LengthLatestInterestArrivalPeriod 	0.177745903287
scalar DataCentricNet.host[74].net 	ignoreRatio 	0.83406113537118
scalar DataCentricNet.host[75].net 	NumberOfNeighbours 	10
scalar DataCentricNet.host[75].net 	TotalNeighborLqi 	1491
scalar DataCentricNet.host[75].net 	AverageNeighborLqi 	149.1
scalar DataCentricNet.host[75].net 	MaxNeighborLqi 	169
scalar DataCentricNet.host[75].net 	MinNeighborLqi 	118
scalar DataCentricNet.host[75].net 	TEST_LengthLatestInterestArrivalPeriod 	0.189249594125
scalar DataCentricNet.host[75].net 	ignoreRatio 	0.8728813559322
scalar DataCentricNet.host[76].net 	NumberOfNeighbours 	10
scalar DataCentricNet.host[76].net 	TotalNeighborLqi 	1390
scalar DataCentricNet.host[76].net 	AverageNeighborLqi 	139
scalar DataCentricNet.host[76].net 	MaxNeighborLqi 	169
scalar DataCentricNet.host[76].net 	MinNeighborLqi 	82
scalar DataCentricNet.host[76].net 	TEST_LengthLatestInterestArrivalPeriod 	0.189249578804
scalar DataCentricNet.host[76].net 	ignoreRatio 	0.8433734939759
scalar DataCentricNet.host[77].net 	NumberOfNeighbours 	10
scalar DataCentricNet.host[77].net 	TotalNeighborLqi 	1420
scalar DataCentricNet.host[77].net 	AverageNeighborLqi 	142
scalar DataCentricNet.host[77].net 	MaxNeighborLqi 	169
scalar DataCentricNet.host[77].net 	MinNeighborLqi 	115
scalar DataCentricNet.host[77].net 	TEST_LengthLatestInterestArrivalPeriod 	0.177745905744
scalar DataCentricNet.host[77].net 	ignoreRatio 	0.84518828451883
scalar DataCentricNet.host[78].net 	NumberOfNeighbours 	10
scalar DataCentricNet.host[78].net 	TotalNeighborLqi 	1497
scalar DataCentricNet.host[78].net 	AverageNeighborLqi 	149.7
scalar DataCentricNet.host[78].net 	MaxNeighborLqi 	169
scalar DataCentricNet.host[78].net 	MinNeighborLqi 	110
scalar DataCentricNet.host[78].net 	TEST_LengthLatestInterestArrivalPeriod 	0.189249586261
scalar DataCentricNet.host[78].net 	ignoreRatio 	0.84873949579832
scalar DataCentricNet.host[79].net 	NumberOfNeighbours 	10
scalar DataCentricNet.host[79].net 	TotalNeighborLqi 	1407
scalar DataCentricNet.host[79].net 	AverageNeighborLqi 	140.7
scalar DataCentricNet.host[79].net 	MaxNeighborLqi 	161
scalar DataCentricNet.host[79].net 	MinNeighborLqi 	77
scalar DataCentricNet.host[79].net 	TEST_LengthLatestInterestArrivalPeriod 	0.177745910342
scalar DataCentricNet.host[79].net 	ignoreRatio 	0.86666666666667
scalar DataCentricNet.host[80].net 	NumberOfNeighbours 	10
scalar DataCentricNet.host[80].net 	TotalNeighborLqi 	1385
scalar DataCentricNet.host[80].net 	AverageNeighborLqi 	138.5
scalar DataCentricNet.host[80].net 	MaxNeighborLqi 	169
scalar DataCentricNet.host[80].net 	MinNeighborLqi 	87
scalar DataCentricNet.host[80].net 	TEST_LengthLatestInterestArrivalPeriod 	0.178901011101
scalar DataCentricNet.host[80].net 	ignoreRatio 	0.85232067510549
scalar DataCentricNet.host[81].net 	NumberOfNeighbours 	10
scalar DataCentricNet.host[81].net 	TotalNeighborLqi 	1383
scalar DataCentricNet.host[81].net 	AverageNeighborLqi 	138.3
scalar DataCentricNet.host[81].net 	MaxNeighborLqi 	169
scalar DataCentricNet.host[81].net 	MinNeighborLqi 	105
scalar DataCentricNet.host[81].net 	TEST_LengthLatestInterestArrivalPeriod 	0.177745893213
scalar DataCentricNet.host[81].net 	ignoreRatio 	0.85897435897436
scalar DataCentricNet.host[82].net 	NumberOfNeighbours 	10
scalar DataCentricNet.host[82].net 	TotalNeighborLqi 	1444
scalar DataCentricNet.host[82].net 	AverageNeighborLqi 	144.4
scalar DataCentricNet.host[82].net 	MaxNeighborLqi 	169
scalar DataCentricNet.host[82].net 	MinNeighborLqi 	77
scalar DataCentricNet.host[82].net 	TEST_LengthLatestInterestArrivalPeriod 	0.189249581759
scalar DataCentricNet.host[82].net 	ignoreRatio 	0.79296875
scalar DataCentricNet.host[83].net 	NumberOfNeighbours 	10
scalar DataCentricNet.host[83].net 	TotalNeighborLqi 	1348
scalar DataCentricNet.host[83].net 	AverageNeighborLqi 	134.8
scalar DataCentricNet.host[83].net 	MaxNeighborLqi 	166
scalar DataCentricNet.host[83].net 	MinNeighborLqi 	87
scalar DataCentricNet.host[83].net 	TEST_LengthLatestInterestArrivalPeriod 	0.189249570427
scalar DataCentricNet.host[83].net 	ignoreRatio 	0.85416666666667
scalar DataCentricNet.host[84].net 	NumberOfNeighbours 	10
scalar DataCentricNet.host[84].net 	TotalNeighborLqi 	1345
scalar DataCentricNet.host[84].net 	AverageNeighborLqi 	134.5
scalar DataCentricNet.host[84].net 	MaxNeighborLqi 	153
scalar DataCentricNet.host[84].net 	MinNeighborLqi 	95
scalar DataCentricNet.host[84].net 	TEST_LengthLatestInterestArrivalPeriod 	0.189249587153
scalar DataCentricNet.host[84].net 	ignoreRatio 	0.85042735042735
scalar DataCentricNet.host[85].net 	NumberOfNeighbours 	10
scalar DataCentricNet.host[85].net 	TotalNeighborLqi 	1210
scalar DataCentricNet.host[85].net 	AverageNeighborLqi 	121
scalar DataCentricNet.host[85].net 	MaxNeighborLqi 	164
scalar DataCentricNet.host[85].net 	MinNeighborLqi 	26
scalar DataCentricNet.host[85].net 	TEST_LengthLatestInterestArrivalPeriod 	0.177745907029
scalar DataCentricNet.host[85].net 	ignoreRatio 	0.86075949367089
scalar DataCentricNet.host[86].net 	NumberOfNeighbours 	10
scalar DataCentricNet.host[86].net 	TotalNeighborLqi 	1308
scalar DataCentricNet.host[86].net 	AverageNeighborLqi 	130.8
scalar DataCentricNet.host[86].net 	MaxNeighborLqi 	166
scalar DataCentricNet.host[86].net 	MinNeighborLqi 	69
scalar DataCentricNet.host[86].net 	TEST_LengthLatestInterestArrivalPeriod 	0.189249591567
scalar DataCentricNet.host[86].net 	ignoreRatio 	0.85169491525424
scalar DataCentricNet.host[87].net 	NumberOfNeighbours 	10
scalar DataCentricNet.host[87].net 	TotalNeighborLqi 	1447
scalar DataCentricNet.host[87].net 	AverageNeighborLqi 	144.7
scalar DataCentricNet.host[87].net 	MaxNeighborLqi 	169
scalar DataCentricNet.host[87].net 	MinNeighborLqi 	108
scalar DataCentricNet.host[87].net 	TEST_LengthLatestInterestArrivalPeriod 	0.189249579481
scalar DataCentricNet.host[87].net 	ignoreRatio 	0.82857142857143
scalar DataCentricNet.host[88].net 	NumberOfNeighbours 	10
scalar DataCentricNet.host[88].net 	TotalNeighborLqi 	1415
scalar DataCentricNet.host[88].net 	AverageNeighborLqi 	141.5
scalar DataCentricNet.host[88].net 	MaxNeighborLqi 	164
scalar DataCentricNet.host[88].net 	MinNeighborLqi 	105
scalar DataCentricNet.host[88].net 	TEST_LengthLatestInterestArrivalPeriod 	0.189249593254
scalar DataCentricNet.host[88].net 	ignoreRatio 	0.84081632653061
scalar DataCentricNet.host[89].net 	NumberOfNeighbours 	10
scalar DataCentricNet.host[89].net 	TotalNeighborLqi 	1303
scalar DataCentricNet.host[89].net 	AverageNeighborLqi 	130.3
scalar DataCentricNet.host[89].net 	MaxNeighborLqi 	166
scalar DataCentricNet.host[89].net 	MinNeighborLqi 	105
scalar DataCentricNet.host[89].net 	TEST_LengthLatestInterestArrivalPeriod 	0.189249578648
scalar DataCentricNet.host[89].net 	ignoreRatio 	0.84745762711864
scalar DataCentricNet.host[90].net 	NumberOfNeighbours 	11
scalar DataCentricNet.host[90].net 	TotalNeighborLqi 	1284
scalar DataCentricNet.host[90].net 	AverageNeighborLqi 	116.72727272727
scalar DataCentricNet.host[90].net 	MaxNeighborLqi 	166
scalar DataCentricNet.host[90].net 	MinNeighborLqi 	13
scalar DataCentricNet.host[90].net 	TEST_LengthLatestInterestArrivalPeriod 	0.189249574286
scalar DataCentricNet.host[90].net 	ignoreRatio 	0.85774058577406
scalar DataCentricNet.host[91].net 	NumberOfNeighbours 	10
scalar DataCentricNet.host[91].net 	TotalNeighborLqi 	1466
scalar DataCentricNet.host[91].net 	AverageNeighborLqi 	146.6
scalar DataCentricNet.host[91].net 	MaxNeighborLqi 	169
scalar DataCentricNet.host[91].net 	MinNeighborLqi 	105
scalar DataCentricNet.host[91].net 	TEST_LengthLatestInterestArrivalPeriod 	0.189249572072
scalar DataCentricNet.host[91].net 	ignoreRatio 	0.85344827586207
scalar DataCentricNet.host[92].net 	NumberOfNeighbours 	11
scalar DataCentricNet.host[92].net 	TotalNeighborLqi 	1517
scalar DataCentricNet.host[92].net 	AverageNeighborLqi 	137.90909090909
scalar DataCentricNet.host[92].net 	MaxNeighborLqi 	166
scalar DataCentricNet.host[92].net 	MinNeighborLqi 	13
scalar DataCentricNet.host[92].net 	TEST_LengthLatestInterestArrivalPeriod 	0.189249584289
scalar DataCentricNet.host[92].net 	ignoreRatio 	0.78326996197719
scalar DataCentricNet.host[93].net 	NumberOfNeighbours 	10
scalar DataCentricNet.host[93].net 	TotalNeighborLqi 	1379
scalar DataCentricNet.host[93].net 	AverageNeighborLqi 	137.9
scalar DataCentricNet.host[93].net 	MaxNeighborLqi 	161
scalar DataCentricNet.host[93].net 	MinNeighborLqi 	100
scalar DataCentricNet.host[93].net 	TEST_LengthLatestInterestArrivalPeriod 	0.17774587003
scalar DataCentricNet.host[93].net 	ignoreRatio 	0.84913793103448
scalar DataCentricNet.host[94].net 	NumberOfNeighbours 	10
scalar DataCentricNet.host[94].net 	TotalNeighborLqi 	1244
scalar DataCentricNet.host[94].net 	AverageNeighborLqi 	124.4
scalar DataCentricNet.host[94].net 	MaxNeighborLqi 	153
scalar DataCentricNet.host[94].net 	MinNeighborLqi 	100
scalar DataCentricNet.host[94].net 	TEST_LengthLatestInterestArrivalPeriod 	0.18924959216
scalar DataCentricNet.host[94].net 	ignoreRatio 	0.83467741935484
scalar DataCentricNet.host[95].net 	NumberOfNeighbours 	10
scalar DataCentricNet.host[95].net 	TotalNeighborLqi 	1468
scalar DataCentricNet.host[95].net 	AverageNeighborLqi 	146.8
scalar DataCentricNet.host[95].net 	MaxNeighborLqi 	169
scalar DataCentricNet.host[95].net 	MinNeighborLqi 	113
scalar DataCentricNet.host[95].net 	TEST_LengthLatestInterestArrivalPeriod 	0.177745915702
scalar DataCentricNet.host[95].net 	ignoreRatio 	0.84415584415584
scalar DataCentricNet.host[96].net 	NumberOfNeighbours 	10
scalar DataCentricNet.host[96].net 	TotalNeighborLqi 	1335
scalar DataCentricNet.host[96].net 	AverageNeighborLqi 	133.5
scalar DataCentricNet.host[96].net 	MaxNeighborLqi 	169
scalar DataCentricNet.host[96].net 	MinNeighborLqi 	77
scalar DataCentricNet.host[96].net 	TEST_LengthLatestInterestArrivalPeriod 	0.17774589649
scalar DataCentricNet.host[96].net 	ignoreRatio 	0.86831275720165
scalar DataCentricNet.host[97].net 	NumberOfNeighbours 	10
scalar DataCentricNet.host[97].net 	TotalNeighborLqi 	1303
scalar DataCentricNet.host[97].net 	AverageNeighborLqi 	130.3
scalar DataCentricNet.host[97].net 	MaxNeighborLqi 	166
scalar DataCentricNet.host[97].net 	MinNeighborLqi 	90
scalar DataCentricNet.host[97].net 	TEST_LengthLatestInterestArrivalPeriod 	0.189249590196
scalar DataCentricNet.host[97].net 	ignoreRatio 	0.81069958847737
scalar DataCentricNet.host[98].net 	NumberOfNeighbours 	10
scalar DataCentricNet.host[98].net 	TotalNeighborLqi 	1498
scalar DataCentricNet.host[98].net 	AverageNeighborLqi 	149.8
scalar DataCentricNet.host[98].net 	MaxNeighborLqi 	169
scalar DataCentricNet.host[98].net 	MinNeighborLqi 	113
scalar DataCentricNet.host[98].net 	TEST_LengthLatestInterestArrivalPeriod 	0.189249580148
scalar DataCentricNet.host[98].net 	ignoreRatio 	0.84426229508197
scalar DataCentricNet.host[99].net 	NumberOfNeighbours 	10
scalar DataCentricNet.host[99].net 	TotalNeighborLqi 	1432
scalar DataCentricNet.host[99].net 	AverageNeighborLqi 	143.2
scalar DataCentricNet.host[99].net 	MaxNeighborLqi 	166
scalar DataCentricNet.host[99].net 	MinNeighborLqi 	120
scalar DataCentricNet.host[99].net 	TEST_LengthLatestInterestArrivalPeriod 	0.177745880635
scalar DataCentricNet.host[99].net 	ignoreRatio 	0.84279475982533
scalar DataCentricNet.host[100].net 	NumberOfNeighbours 	11
scalar DataCentricNet.host[100].net 	TotalNeighborLqi 	1358
scalar DataCentricNet.host[100].net 	AverageNeighborLqi 	123.45454545455
scalar DataCentricNet.host[100].net 	MaxNeighborLqi 	169
scalar DataCentricNet.host[100].net 	MinNeighborLqi 	13
scalar DataCentricNet.host[100].net 	TEST_LengthLatestInterestArrivalPeriod 	0.183587169311
scalar DataCentricNet.host[100].net 	ignoreRatio 	0.84745762711864
scalar DataCentricNet.host[101].net 	NumberOfNeighbours 	10
scalar DataCentricNet.host[101].net 	TotalNeighborLqi 	1469
scalar DataCentricNet.host[101].net 	AverageNeighborLqi 	146.9
scalar DataCentricNet.host[101].net 	MaxNeighborLqi 	169
scalar DataCentricNet.host[101].net 	MinNeighborLqi 	123
scalar DataCentricNet.host[101].net 	TEST_LengthLatestInterestArrivalPeriod 	0.189249593933
scalar DataCentricNet.host[101].net 	ignoreRatio 	0.84033613445378
scalar DataCentricNet.host[102].net 	NumberOfNeighbours 	10
scalar DataCentricNet.host[102].net 	TotalNeighborLqi 	1201
scalar DataCentricNet.host[102].net 	AverageNeighborLqi 	120.1
scalar DataCentricNet.host[102].net 	MaxNeighborLqi 	159
scalar DataCentricNet.host[102].net 	MinNeighborLqi 	54
scalar DataCentricNet.host[102].net 	TEST_LengthLatestInterestArrivalPeriod 	0.189249587448
scalar DataCentricNet.host[102].net 	ignoreRatio 	0.80566801619433
scalar DataCentricNet.host[103].net 	NumberOfNeighbours 	10
scalar DataCentricNet.host[103].net 	TotalNeighborLqi 	1441
scalar DataCentricNet.host[103].net 	AverageNeighborLqi 	144.1
scalar DataCentricNet.host[103].net 	MaxNeighborLqi 	169
scalar DataCentricNet.host[103].net 	MinNeighborLqi 	105
scalar DataCentricNet.host[103].net 	TEST_LengthLatestInterestArrivalPeriod 	0.177745898643
scalar DataCentricNet.host[103].net 	ignoreRatio 	0.82978723404255
scalar DataCentricNet.host[104].net 	NumberOfNeighbours 	10
scalar DataCentricNet.host[104].net 	TotalNeighborLqi 	1334
scalar DataCentricNet.host[104].net 	AverageNeighborLqi 	133.4
scalar DataCentricNet.host[104].net 	MaxNeighborLqi 	169
scalar DataCentricNet.host[104].net 	MinNeighborLqi 	64
scalar DataCentricNet.host[104].net 	TEST_LengthLatestInterestArrivalPeriod 	0.189249579165
scalar DataCentricNet.host[104].net 	ignoreRatio 	0.8530612244898
scalar DataCentricNet.host[105].net 	NumberOfNeighbours 	10
scalar DataCentricNet.host[105].net 	TotalNeighborLqi 	1470
scalar DataCentricNet.host[105].net 	AverageNeighborLqi 	147
scalar DataCentricNet.host[105].net 	MaxNeighborLqi 	169
scalar DataCentricNet.host[105].net 	MinNeighborLqi 	110
scalar DataCentricNet.host[105].net 	TEST_LengthLatestInterestArrivalPeriod 	0.189249586799
scalar DataCentricNet.host[105].net 	ignoreRatio 	0.85714285714286
scalar DataCentricNet.host[106].net 	NumberOfNeighbours 	10
scalar DataCentricNet.host[106].net 	TotalNeighborLqi 	1392
scalar DataCentricNet.host[106].net 	AverageNeighborLqi 	139.2
scalar DataCentricNet.host[106].net 	MaxNeighborLqi 	166
scalar DataCentricNet.host[106].net 	MinNeighborLqi 	113
scalar DataCentricNet.host[106].net 	TEST_LengthLatestInterestArrivalPeriod 	0.183587179347
scalar DataCentricNet.host[106].net 	ignoreRatio 	0.83050847457627
scalar DataCentricNet.host[107].net 	NumberOfNeighbours 	10
scalar DataCentricNet.host[107].net 	TotalNeighborLqi 	1286
scalar DataCentricNet.host[107].net 	AverageNeighborLqi 	128.6
scalar DataCentricNet.host[107].net 	MaxNeighborLqi 	164
scalar DataCentricNet.host[107].net 	MinNeighborLqi 	80
scalar DataCentricNet.host[107].net 	TEST_LengthLatestInterestArrivalPeriod 	0.189249584966
scalar DataCentricNet.host[107].net 	ignoreRatio 	0.8477366255144
scalar DataCentricNet.host[108].net 	NumberOfNeighbours 	10
scalar DataCentricNet.host[108].net 	TotalNeighborLqi 	1436
scalar DataCentricNet.host[108].net 	AverageNeighborLqi 	143.6
scalar DataCentricNet.host[108].net 	MaxNeighborLqi 	161
scalar DataCentricNet.host[108].net 	MinNeighborLqi 	90
scalar DataCentricNet.host[108].net 	TEST_LengthLatestInterestArrivalPeriod 	0.189249588874
scalar DataCentricNet.host[108].net 	ignoreRatio 	0.83333333333333
scalar DataCentricNet.host[109].net 	NumberOfNeighbours 	10
scalar DataCentricNet.host[109].net 	TotalNeighborLqi 	1551
scalar DataCentricNet.host[109].net 	AverageNeighborLqi 	155.1
scalar DataCentricNet.host[109].net 	MaxNeighborLqi 	169
scalar DataCentricNet.host[109].net 	MinNeighborLqi 	138
scalar DataCentricNet.host[109].net 	TEST_LengthLatestInterestArrivalPeriod 	0.177745883737
scalar DataCentricNet.host[109].net 	ignoreRatio 	0.84848484848485
scalar DataCentricNet.host[110].net 	NumberOfNeighbours 	11
scalar DataCentricNet.host[110].net 	TotalNeighborLqi 	1481
scalar DataCentricNet.host[110].net 	AverageNeighborLqi 	134.63636363636
scalar DataCentricNet.host[110].net 	MaxNeighborLqi 	169
scalar DataCentricNet.host[110].net 	MinNeighborLqi 	13
scalar DataCentricNet.host[110].net 	TEST_LengthLatestInterestArrivalPeriod 	0.189249582946
scalar DataCentricNet.host[110].net 	ignoreRatio 	0.85416666666667
scalar DataCentricNet.host[111].net 	NumberOfNeighbours 	10
scalar DataCentricNet.host[111].net 	TotalNeighborLqi 	1508
scalar DataCentricNet.host[111].net 	AverageNeighborLqi 	150.8
scalar DataCentricNet.host[111].net 	MaxNeighborLqi 	169
scalar DataCentricNet.host[111].net 	MinNeighborLqi 	113
scalar DataCentricNet.host[111].net 	TEST_LengthLatestInterestArrivalPeriod 	0.189249581832
scalar DataCentricNet.host[111].net 	ignoreRatio 	0.84489795918367
scalar DataCentricNet.host[112].net 	NumberOfNeighbours 	10
scalar DataCentricNet.host[112].net 	TotalNeighborLqi 	1473
scalar DataCentricNet.host[112].net 	AverageNeighborLqi 	147.3
scalar DataCentricNet.host[112].net 	MaxNeighborLqi 	169
scalar DataCentricNet.host[112].net 	MinNeighborLqi 	115
scalar DataCentricNet.host[112].net 	TEST_LengthLatestInterestArrivalPeriod 	0.178901011379
scalar DataCentricNet.host[112].net 	ignoreRatio 	0.85042735042735
scalar DataCentricNet.host[113].net 	NumberOfNeighbours 	10
scalar DataCentricNet.host[113].net 	TotalNeighborLqi 	1273
scalar DataCentricNet.host[113].net 	AverageNeighborLqi 	127.3
scalar DataCentricNet.host[113].net 	MaxNeighborLqi 	153
scalar DataCentricNet.host[113].net 	MinNeighborLqi 	92
scalar DataCentricNet.host[113].net 	TEST_LengthLatestInterestArrivalPeriod 	0.18924958111
scalar DataCentricNet.host[113].net 	ignoreRatio 	0.85833333333333
scalar DataCentricNet.host[114].net 	NumberOfNeighbours 	10
scalar DataCentricNet.host[114].net 	TotalNeighborLqi 	1447
scalar DataCentricNet.host[114].net 	AverageNeighborLqi 	144.7
scalar DataCentricNet.host[114].net 	MaxNeighborLqi 	164
scalar DataCentricNet.host[114].net 	MinNeighborLqi 	97
scalar DataCentricNet.host[114].net 	TEST_LengthLatestInterestArrivalPeriod 	0.189249590898
scalar DataCentricNet.host[114].net 	ignoreRatio 	0.84322033898305
scalar DataCentricNet.host[115].net 	NumberOfNeighbours 	10
scalar DataCentricNet.host[115].net 	TotalNeighborLqi 	1416
scalar DataCentricNet.host[115].net 	AverageNeighborLqi 	141.6
scalar DataCentricNet.host[115].net 	MaxNeighborLqi 	164
scalar DataCentricNet.host[115].net 	MinNeighborLqi 	95
scalar DataCentricNet.host[115].net 	TEST_LengthLatestInterestArrivalPeriod 	0.189249592839
scalar DataCentricNet.host[115].net 	ignoreRatio 	0.84033613445378
scalar DataCentricNet.host[116].net 	NumberOfNeighbours 	10
scalar DataCentricNet.host[116].net 	TotalNeighborLqi 	1496
scalar DataCentricNet.host[116].net 	AverageNeighborLqi 	149.6
scalar DataCentricNet.host[116].net 	MaxNeighborLqi 	166
scalar DataCentricNet.host[116].net 	MinNeighborLqi 	128
scalar DataCentricNet.host[116].net 	TEST_LengthLatestInterestArrivalPeriod 	0.189249576631
scalar DataCentricNet.host[116].net 	ignoreRatio 	0.86065573770492
scalar DataCentricNet.host[117].net 	NumberOfNeighbours 	10
scalar DataCentricNet.host[117].net 	TotalNeighborLqi 	1524
scalar DataCentricNet.host[117].net 	AverageNeighborLqi 	152.4
scalar DataCentricNet.host[117].net 	MaxNeighborLqi 	166
scalar DataCentricNet.host[117].net 	MinNeighborLqi 	133
scalar DataCentricNet.host[117].net 	TEST_LengthLatestInterestArrivalPeriod 	0.189249580974
scalar DataCentricNet.host[117].net 	ignoreRatio 	0.83935742971888
scalar DataCentricNet.host[118].net 	NumberOfNeighbours 	10
scalar DataCentricNet.host[118].net 	TotalNeighborLqi 	1395
scalar DataCentricNet.host[118].net 	AverageNeighborLqi 	139.5
scalar DataCentricNet.host[118].net 	MaxNeighborLqi 	169
scalar DataCentricNet.host[118].net 	MinNeighborLqi 	100
scalar DataCentricNet.host[118].net 	TEST_LengthLatestInterestArrivalPeriod 	0.177745904266
scalar DataCentricNet.host[118].net 	ignoreRatio 	0.875
scalar DataCentricNet.host[119].net 	NumberOfNeighbours 	10
scalar DataCentricNet.host[119].net 	TotalNeighborLqi 	1444
scalar DataCentricNet.host[119].net 	AverageNeighborLqi 	144.4
scalar DataCentricNet.host[119].net 	MaxNeighborLqi 	169
scalar DataCentricNet.host[119].net 	MinNeighborLqi 	113
scalar DataCentricNet.host[119].net 	TEST_LengthLatestInterestArrivalPeriod 	0.189249590469
scalar DataCentricNet.host[119].net 	ignoreRatio 	0.82377049180328
scalar DataCentricNet.host[120].net 	NumberOfNeighbours 	10
scalar DataCentricNet.host[120].net 	TotalNeighborLqi 	1323
scalar DataCentricNet.host[120].net 	AverageNeighborLqi 	132.3
scalar DataCentricNet.host[120].net 	MaxNeighborLqi 	169
scalar DataCentricNet.host[120].net 	MinNeighborLqi 	100
scalar DataCentricNet.host[120].net 	TEST_LengthLatestInterestArrivalPeriod 	0.180179471747
scalar DataCentricNet.host[120].net 	ignoreRatio 	0.84810126582278
scalar DataCentricNet.host[121].net 	NumberOfNeighbours 	10
scalar DataCentricNet.host[121].net 	TotalNeighborLqi 	1406
scalar DataCentricNet.host[121].net 	AverageNeighborLqi 	140.6
scalar DataCentricNet.host[121].net 	MaxNeighborLqi 	169
scalar DataCentricNet.host[121].net 	MinNeighborLqi 	118
scalar DataCentricNet.host[121].net 	TEST_LengthLatestInterestArrivalPeriod 	0.189249580034
scalar DataCentricNet.host[121].net 	ignoreRatio 	0.85344827586207
scalar DataCentricNet.host[122].net 	NumberOfNeighbours 	10
scalar DataCentricNet.host[122].net 	TotalNeighborLqi 	1398
scalar DataCentricNet.host[122].net 	AverageNeighborLqi 	139.8
scalar DataCentricNet.host[122].net 	MaxNeighborLqi 	161
scalar DataCentricNet.host[122].net 	MinNeighborLqi 	95
scalar DataCentricNet.host[122].net 	TEST_LengthLatestInterestArrivalPeriod 	0.183587171488
scalar DataCentricNet.host[122].net 	ignoreRatio 	0.83620689655172
scalar DataCentricNet.host[123].net 	NumberOfNeighbours 	10
scalar DataCentricNet.host[123].net 	TotalNeighborLqi 	1252
scalar DataCentricNet.host[123].net 	AverageNeighborLqi 	125.2
scalar DataCentricNet.host[123].net 	MaxNeighborLqi 	169
scalar DataCentricNet.host[123].net 	MinNeighborLqi 	92
scalar DataCentricNet.host[123].net 	TEST_LengthLatestInterestArrivalPeriod 	0.189249570497
scalar DataCentricNet.host[123].net 	ignoreRatio 	0.85654008438819
scalar DataCentricNet.host[124].net 	NumberOfNeighbours 	10
scalar DataCentricNet.host[124].net 	TotalNeighborLqi 	1361
scalar DataCentricNet.host[124].net 	AverageNeighborLqi 	136.1
scalar DataCentricNet.host[124].net 	MaxNeighborLqi 	166
scalar DataCentricNet.host[124].net 	MinNeighborLqi 	74
scalar DataCentricNet.host[124].net 	TEST_LengthLatestInterestArrivalPeriod 	0.177745887306
scalar DataCentricNet.host[124].net 	ignoreRatio 	0.86610878661088
scalar DataCentricNet.dataCentricNetworkMan 	numDataArrivals 	160
