version 2
run General-0-20120521-14:31:38-1444
attr configname General
attr datetime 20120521-14:31:38
attr experiment General
attr inifile omnetpp.ini
attr iterationvars ""
attr iterationvars2 $repetition=0
attr measurement ""
attr network DataCentricNet
attr processid 1444
attr repetition 0
attr replication #0
attr resultdir results
attr runnumber 0
attr seedset 0

scalar DataCentricNet.host[0].app 	trafficSent 	0
scalar DataCentricNet.host[0].app 	"total bytes received" 	0
scalar DataCentricNet.host[0].net 	NumberOfNeighbours 	3
scalar DataCentricNet.host[0].net 	"num of pkts forwarded" 	0
scalar DataCentricNet.host[0].nic.ifq 	queueLength:max 	0
attr interpolationmode  sample-hold
attr title  "queue length, max"
scalar DataCentricNet.host[0].nic.ifq 	queueLength:timeavg 	0
attr interpolationmode  sample-hold
attr title  "queue length, timeavg"
statistic DataCentricNet.host[0].nic.ifq 	queueingTime:histogram
field count 3
field mean 0
field stddev 0
field sum 0
field sqrsum 0
field min 0
field max 0
attr interpolationmode  none
attr title  "queueing time, histogram"
bin	-INF	0
bin	-0.5	0
bin	-0.46666666666667	0
bin	-0.43333333333333	0
bin	-0.4	0
bin	-0.36666666666667	0
bin	-0.33333333333333	0
bin	-0.3	0
bin	-0.26666666666667	0
bin	-0.23333333333333	0
bin	-0.2	0
bin	-0.16666666666667	0
bin	-0.13333333333333	0
bin	-0.1	0
bin	-0.066666666666667	0
bin	-0.033333333333333	0
bin	-6.9388939039072e-018	3
bin	0.033333333333333	0
bin	0.066666666666667	0
bin	0.1	0
bin	0.13333333333333	0
bin	0.16666666666667	0
bin	0.2	0
bin	0.23333333333333	0
bin	0.26666666666667	0
bin	0.3	0
bin	0.33333333333333	0
bin	0.36666666666667	0
bin	0.4	0
bin	0.43333333333333	0
bin	0.46666666666667	0
bin	0.5	0
scalar DataCentricNet.host[0].nic.ifq 	dropPk:count 	0
attr interpolationmode  none
attr source  dropPkByQueue
attr title  "dropped packets, count"
scalar DataCentricNet.host[0].nic.ifq 	dropPk:sum(packetBytes) 	0
attr interpolationmode  none
attr source  dropPkByQueue
attr title  "dropped packets, sum(packetBytes)"
scalar DataCentricNet.host[0].nic.mac 	nbTxFrames 	3
scalar DataCentricNet.host[0].nic.mac 	nbRxFrames 	0
scalar DataCentricNet.host[0].nic.mac 	nbDroppedFrames 	0
scalar DataCentricNet.host[0].nic.mac 	nbMissedAcks 	0
scalar DataCentricNet.host[0].nic.mac 	nbRecvdAcks 	0
scalar DataCentricNet.host[0].nic.mac 	nbTxAcks 	0
scalar DataCentricNet.host[0].nic.mac 	nbDuplicates 	0
scalar DataCentricNet.host[0].nic.mac 	meanBackoff 	0.0014933333333333
scalar DataCentricNet.host[0].nic.mac 	nbBackoffs 	3
scalar DataCentricNet.host[0].nic.mac 	backoffDurations 	0.00448
scalar DataCentricNet.host[0].nic.phy 	lossRate:min 	-1.#IND
attr interpolationmode  backward-sample-hold
attr title  "packet loss rate, min"
scalar DataCentricNet.host[0].nic.phy 	lossRate:max 	-1.#IND
attr interpolationmode  backward-sample-hold
attr title  "packet loss rate, max"
scalar DataCentricNet.host[0].nic.phy 	lossRate:timeavg 	-1.#IND
attr interpolationmode  backward-sample-hold
attr title  "packet loss rate, timeavg"
scalar DataCentricNet.host[0].nic.phy 	radioState:count 	47
attr interpolationmode  sample-hold
attr title  "radio state (enum), count"
statistic DataCentricNet.host[0].nic.phy 	channelNo:histogram
field count 1
field mean 11
field stddev -1.#IND
field sum 11
field sqrsum 121
field min 11
field max 11
attr interpolationmode  sample-hold
attr title  "channel no, histogram"
bin	-INF	0
bin	10	0
bin	11	1
bin	12	0
scalar DataCentricNet.host[0].nic.phy 	bitrate:min 	250000
attr interpolationmode  sample-hold
attr title  "tx bitrate, min"
attr unit  bps
scalar DataCentricNet.host[0].nic.phy 	bitrate:max 	250000
attr interpolationmode  sample-hold
attr title  "tx bitrate, max"
attr unit  bps
scalar DataCentricNet.host[0].nic.phy 	bitrate:timeavg 	250000
attr interpolationmode  sample-hold
attr title  "tx bitrate, timeavg"
attr unit  bps
scalar DataCentricNet.host[1].app 	trafficSent 	0
scalar DataCentricNet.host[1].app 	"total bytes received" 	0
scalar DataCentricNet.host[1].net 	NumberOfNeighbours 	5
scalar DataCentricNet.host[1].net 	"num of pkts forwarded" 	0
scalar DataCentricNet.host[1].nic.ifq 	queueLength:max 	0
attr interpolationmode  sample-hold
attr title  "queue length, max"
scalar DataCentricNet.host[1].nic.ifq 	queueLength:timeavg 	0
attr interpolationmode  sample-hold
attr title  "queue length, timeavg"
statistic DataCentricNet.host[1].nic.ifq 	queueingTime:histogram
field count 5
field mean 0
field stddev 0
field sum 0
field sqrsum 0
field min 0
field max 0
attr interpolationmode  none
attr title  "queueing time, histogram"
bin	-INF	0
bin	-0.5	0
bin	-0.46666666666667	0
bin	-0.43333333333333	0
bin	-0.4	0
bin	-0.36666666666667	0
bin	-0.33333333333333	0
bin	-0.3	0
bin	-0.26666666666667	0
bin	-0.23333333333333	0
bin	-0.2	0
bin	-0.16666666666667	0
bin	-0.13333333333333	0
bin	-0.1	0
bin	-0.066666666666667	0
bin	-0.033333333333333	0
bin	-6.9388939039072e-018	5
bin	0.033333333333333	0
bin	0.066666666666667	0
bin	0.1	0
bin	0.13333333333333	0
bin	0.16666666666667	0
bin	0.2	0
bin	0.23333333333333	0
bin	0.26666666666667	0
bin	0.3	0
bin	0.33333333333333	0
bin	0.36666666666667	0
bin	0.4	0
bin	0.43333333333333	0
bin	0.46666666666667	0
bin	0.5	0
scalar DataCentricNet.host[1].nic.ifq 	dropPk:count 	0
attr interpolationmode  none
attr source  dropPkByQueue
attr title  "dropped packets, count"
scalar DataCentricNet.host[1].nic.ifq 	dropPk:sum(packetBytes) 	0
attr interpolationmode  none
attr source  dropPkByQueue
attr title  "dropped packets, sum(packetBytes)"
scalar DataCentricNet.host[1].nic.mac 	nbTxFrames 	5
scalar DataCentricNet.host[1].nic.mac 	nbRxFrames 	0
scalar DataCentricNet.host[1].nic.mac 	nbDroppedFrames 	0
scalar DataCentricNet.host[1].nic.mac 	nbMissedAcks 	0
scalar DataCentricNet.host[1].nic.mac 	nbRecvdAcks 	0
scalar DataCentricNet.host[1].nic.mac 	nbTxAcks 	0
scalar DataCentricNet.host[1].nic.mac 	nbDuplicates 	0
scalar DataCentricNet.host[1].nic.mac 	meanBackoff 	0.001344
scalar DataCentricNet.host[1].nic.mac 	nbBackoffs 	5
scalar DataCentricNet.host[1].nic.mac 	backoffDurations 	0.00672
scalar DataCentricNet.host[1].nic.phy 	lossRate:min 	-1.#IND
attr interpolationmode  backward-sample-hold
attr title  "packet loss rate, min"
scalar DataCentricNet.host[1].nic.phy 	lossRate:max 	-1.#IND
attr interpolationmode  backward-sample-hold
attr title  "packet loss rate, max"
scalar DataCentricNet.host[1].nic.phy 	lossRate:timeavg 	-1.#IND
attr interpolationmode  backward-sample-hold
attr title  "packet loss rate, timeavg"
scalar DataCentricNet.host[1].nic.phy 	radioState:count 	66
attr interpolationmode  sample-hold
attr title  "radio state (enum), count"
statistic DataCentricNet.host[1].nic.phy 	channelNo:histogram
field count 1
field mean 11
field stddev -1.#IND
field sum 11
field sqrsum 121
field min 11
field max 11
attr interpolationmode  sample-hold
attr title  "channel no, histogram"
bin	-INF	0
bin	10	0
bin	11	1
bin	12	0
scalar DataCentricNet.host[1].nic.phy 	bitrate:min 	250000
attr interpolationmode  sample-hold
attr title  "tx bitrate, min"
attr unit  bps
scalar DataCentricNet.host[1].nic.phy 	bitrate:max 	250000
attr interpolationmode  sample-hold
attr title  "tx bitrate, max"
attr unit  bps
scalar DataCentricNet.host[1].nic.phy 	bitrate:timeavg 	250000
attr interpolationmode  sample-hold
attr title  "tx bitrate, timeavg"
attr unit  bps
scalar DataCentricNet.host[2].app 	trafficSent 	0
scalar DataCentricNet.host[2].app 	"total bytes received" 	0
scalar DataCentricNet.host[2].net 	NumberOfNeighbours 	5
scalar DataCentricNet.host[2].net 	"num of pkts forwarded" 	0
scalar DataCentricNet.host[2].nic.ifq 	queueLength:max 	0
attr interpolationmode  sample-hold
attr title  "queue length, max"
scalar DataCentricNet.host[2].nic.ifq 	queueLength:timeavg 	0
attr interpolationmode  sample-hold
attr title  "queue length, timeavg"
statistic DataCentricNet.host[2].nic.ifq 	queueingTime:histogram
field count 3
field mean 0
field stddev 0
field sum 0
field sqrsum 0
field min 0
field max 0
attr interpolationmode  none
attr title  "queueing time, histogram"
bin	-INF	0
bin	-0.5	0
bin	-0.46666666666667	0
bin	-0.43333333333333	0
bin	-0.4	0
bin	-0.36666666666667	0
bin	-0.33333333333333	0
bin	-0.3	0
bin	-0.26666666666667	0
bin	-0.23333333333333	0
bin	-0.2	0
bin	-0.16666666666667	0
bin	-0.13333333333333	0
bin	-0.1	0
bin	-0.066666666666667	0
bin	-0.033333333333333	0
bin	-6.9388939039072e-018	3
bin	0.033333333333333	0
bin	0.066666666666667	0
bin	0.1	0
bin	0.13333333333333	0
bin	0.16666666666667	0
bin	0.2	0
bin	0.23333333333333	0
bin	0.26666666666667	0
bin	0.3	0
bin	0.33333333333333	0
bin	0.36666666666667	0
bin	0.4	0
bin	0.43333333333333	0
bin	0.46666666666667	0
bin	0.5	0
scalar DataCentricNet.host[2].nic.ifq 	dropPk:count 	0
attr interpolationmode  none
attr source  dropPkByQueue
attr title  "dropped packets, count"
scalar DataCentricNet.host[2].nic.ifq 	dropPk:sum(packetBytes) 	0
attr interpolationmode  none
attr source  dropPkByQueue
attr title  "dropped packets, sum(packetBytes)"
scalar DataCentricNet.host[2].nic.mac 	nbTxFrames 	3
scalar DataCentricNet.host[2].nic.mac 	nbRxFrames 	0
scalar DataCentricNet.host[2].nic.mac 	nbDroppedFrames 	0
scalar DataCentricNet.host[2].nic.mac 	nbMissedAcks 	0
scalar DataCentricNet.host[2].nic.mac 	nbRecvdAcks 	0
scalar DataCentricNet.host[2].nic.mac 	nbTxAcks 	0
scalar DataCentricNet.host[2].nic.mac 	nbDuplicates 	0
scalar DataCentricNet.host[2].nic.mac 	meanBackoff 	0.0011733333333333
scalar DataCentricNet.host[2].nic.mac 	nbBackoffs 	3
scalar DataCentricNet.host[2].nic.mac 	backoffDurations 	0.00352
scalar DataCentricNet.host[2].nic.phy 	lossRate:min 	-1.#IND
attr interpolationmode  backward-sample-hold
attr title  "packet loss rate, min"
scalar DataCentricNet.host[2].nic.phy 	lossRate:max 	-1.#IND
attr interpolationmode  backward-sample-hold
attr title  "packet loss rate, max"
scalar DataCentricNet.host[2].nic.phy 	lossRate:timeavg 	-1.#IND
attr interpolationmode  backward-sample-hold
attr title  "packet loss rate, timeavg"
scalar DataCentricNet.host[2].nic.phy 	radioState:count 	66
attr interpolationmode  sample-hold
attr title  "radio state (enum), count"
statistic DataCentricNet.host[2].nic.phy 	channelNo:histogram
field count 1
field mean 11
field stddev -1.#IND
field sum 11
field sqrsum 121
field min 11
field max 11
attr interpolationmode  sample-hold
attr title  "channel no, histogram"
bin	-INF	0
bin	10	0
bin	11	1
bin	12	0
scalar DataCentricNet.host[2].nic.phy 	bitrate:min 	250000
attr interpolationmode  sample-hold
attr title  "tx bitrate, min"
attr unit  bps
scalar DataCentricNet.host[2].nic.phy 	bitrate:max 	250000
attr interpolationmode  sample-hold
attr title  "tx bitrate, max"
attr unit  bps
scalar DataCentricNet.host[2].nic.phy 	bitrate:timeavg 	250000
attr interpolationmode  sample-hold
attr title  "tx bitrate, timeavg"
attr unit  bps
scalar DataCentricNet.host[3].app 	trafficSent 	0
scalar DataCentricNet.host[3].app 	"total bytes received" 	0
scalar DataCentricNet.host[3].net 	NumberOfNeighbours 	4
scalar DataCentricNet.host[3].net 	"num of pkts forwarded" 	0
scalar DataCentricNet.host[3].nic.ifq 	queueLength:max 	0
attr interpolationmode  sample-hold
attr title  "queue length, max"
scalar DataCentricNet.host[3].nic.ifq 	queueLength:timeavg 	0
attr interpolationmode  sample-hold
attr title  "queue length, timeavg"
statistic DataCentricNet.host[3].nic.ifq 	queueingTime:histogram
field count 3
field mean 0
field stddev 0
field sum 0
field sqrsum 0
field min 0
field max 0
attr interpolationmode  none
attr title  "queueing time, histogram"
bin	-INF	0
bin	-0.5	0
bin	-0.46666666666667	0
bin	-0.43333333333333	0
bin	-0.4	0
bin	-0.36666666666667	0
bin	-0.33333333333333	0
bin	-0.3	0
bin	-0.26666666666667	0
bin	-0.23333333333333	0
bin	-0.2	0
bin	-0.16666666666667	0
bin	-0.13333333333333	0
bin	-0.1	0
bin	-0.066666666666667	0
bin	-0.033333333333333	0
bin	-6.9388939039072e-018	3
bin	0.033333333333333	0
bin	0.066666666666667	0
bin	0.1	0
bin	0.13333333333333	0
bin	0.16666666666667	0
bin	0.2	0
bin	0.23333333333333	0
bin	0.26666666666667	0
bin	0.3	0
bin	0.33333333333333	0
bin	0.36666666666667	0
bin	0.4	0
bin	0.43333333333333	0
bin	0.46666666666667	0
bin	0.5	0
scalar DataCentricNet.host[3].nic.ifq 	dropPk:count 	0
attr interpolationmode  none
attr source  dropPkByQueue
attr title  "dropped packets, count"
scalar DataCentricNet.host[3].nic.ifq 	dropPk:sum(packetBytes) 	0
attr interpolationmode  none
attr source  dropPkByQueue
attr title  "dropped packets, sum(packetBytes)"
scalar DataCentricNet.host[3].nic.mac 	nbTxFrames 	3
scalar DataCentricNet.host[3].nic.mac 	nbRxFrames 	0
scalar DataCentricNet.host[3].nic.mac 	nbDroppedFrames 	0
scalar DataCentricNet.host[3].nic.mac 	nbMissedAcks 	0
scalar DataCentricNet.host[3].nic.mac 	nbRecvdAcks 	0
scalar DataCentricNet.host[3].nic.mac 	nbTxAcks 	0
scalar DataCentricNet.host[3].nic.mac 	nbDuplicates 	0
scalar DataCentricNet.host[3].nic.mac 	meanBackoff 	0.00192
scalar DataCentricNet.host[3].nic.mac 	nbBackoffs 	4
scalar DataCentricNet.host[3].nic.mac 	backoffDurations 	0.00768
scalar DataCentricNet.host[3].nic.phy 	lossRate:min 	-1.#IND
attr interpolationmode  backward-sample-hold
attr title  "packet loss rate, min"
scalar DataCentricNet.host[3].nic.phy 	lossRate:max 	-1.#IND
attr interpolationmode  backward-sample-hold
attr title  "packet loss rate, max"
scalar DataCentricNet.host[3].nic.phy 	lossRate:timeavg 	-1.#IND
attr interpolationmode  backward-sample-hold
attr title  "packet loss rate, timeavg"
scalar DataCentricNet.host[3].nic.phy 	radioState:count 	65
attr interpolationmode  sample-hold
attr title  "radio state (enum), count"
statistic DataCentricNet.host[3].nic.phy 	channelNo:histogram
field count 1
field mean 11
field stddev -1.#IND
field sum 11
field sqrsum 121
field min 11
field max 11
attr interpolationmode  sample-hold
attr title  "channel no, histogram"
bin	-INF	0
bin	10	0
bin	11	1
bin	12	0
scalar DataCentricNet.host[3].nic.phy 	bitrate:min 	250000
attr interpolationmode  sample-hold
attr title  "tx bitrate, min"
attr unit  bps
scalar DataCentricNet.host[3].nic.phy 	bitrate:max 	250000
attr interpolationmode  sample-hold
attr title  "tx bitrate, max"
attr unit  bps
scalar DataCentricNet.host[3].nic.phy 	bitrate:timeavg 	250000
attr interpolationmode  sample-hold
attr title  "tx bitrate, timeavg"
attr unit  bps
scalar DataCentricNet.host[4].app 	trafficSent 	0
scalar DataCentricNet.host[4].app 	"total bytes received" 	0
scalar DataCentricNet.host[4].net 	NumberOfNeighbours 	4
scalar DataCentricNet.host[4].net 	"num of pkts forwarded" 	0
scalar DataCentricNet.host[4].nic.ifq 	queueLength:max 	0
attr interpolationmode  sample-hold
attr title  "queue length, max"
scalar DataCentricNet.host[4].nic.ifq 	queueLength:timeavg 	0
attr interpolationmode  sample-hold
attr title  "queue length, timeavg"
statistic DataCentricNet.host[4].nic.ifq 	queueingTime:histogram
field count 3
field mean 0
field stddev 0
field sum 0
field sqrsum 0
field min 0
field max 0
attr interpolationmode  none
attr title  "queueing time, histogram"
bin	-INF	0
bin	-0.5	0
bin	-0.46666666666667	0
bin	-0.43333333333333	0
bin	-0.4	0
bin	-0.36666666666667	0
bin	-0.33333333333333	0
bin	-0.3	0
bin	-0.26666666666667	0
bin	-0.23333333333333	0
bin	-0.2	0
bin	-0.16666666666667	0
bin	-0.13333333333333	0
bin	-0.1	0
bin	-0.066666666666667	0
bin	-0.033333333333333	0
bin	-6.9388939039072e-018	3
bin	0.033333333333333	0
bin	0.066666666666667	0
bin	0.1	0
bin	0.13333333333333	0
bin	0.16666666666667	0
bin	0.2	0
bin	0.23333333333333	0
bin	0.26666666666667	0
bin	0.3	0
bin	0.33333333333333	0
bin	0.36666666666667	0
bin	0.4	0
bin	0.43333333333333	0
bin	0.46666666666667	0
bin	0.5	0
scalar DataCentricNet.host[4].nic.ifq 	dropPk:count 	0
attr interpolationmode  none
attr source  dropPkByQueue
attr title  "dropped packets, count"
scalar DataCentricNet.host[4].nic.ifq 	dropPk:sum(packetBytes) 	0
attr interpolationmode  none
attr source  dropPkByQueue
attr title  "dropped packets, sum(packetBytes)"
scalar DataCentricNet.host[4].nic.mac 	nbTxFrames 	3
scalar DataCentricNet.host[4].nic.mac 	nbRxFrames 	0
scalar DataCentricNet.host[4].nic.mac 	nbDroppedFrames 	0
scalar DataCentricNet.host[4].nic.mac 	nbMissedAcks 	0
scalar DataCentricNet.host[4].nic.mac 	nbRecvdAcks 	0
scalar DataCentricNet.host[4].nic.mac 	nbTxAcks 	0
scalar DataCentricNet.host[4].nic.mac 	nbDuplicates 	0
scalar DataCentricNet.host[4].nic.mac 	meanBackoff 	0.0013866666666667
scalar DataCentricNet.host[4].nic.mac 	nbBackoffs 	3
scalar DataCentricNet.host[4].nic.mac 	backoffDurations 	0.00416
scalar DataCentricNet.host[4].nic.phy 	lossRate:min 	-1.#IND
attr interpolationmode  backward-sample-hold
attr title  "packet loss rate, min"
scalar DataCentricNet.host[4].nic.phy 	lossRate:max 	-1.#IND
attr interpolationmode  backward-sample-hold
attr title  "packet loss rate, max"
scalar DataCentricNet.host[4].nic.phy 	lossRate:timeavg 	-1.#IND
attr interpolationmode  backward-sample-hold
attr title  "packet loss rate, timeavg"
scalar DataCentricNet.host[4].nic.phy 	radioState:count 	71
attr interpolationmode  sample-hold
attr title  "radio state (enum), count"
statistic DataCentricNet.host[4].nic.phy 	channelNo:histogram
field count 1
field mean 11
field stddev -1.#IND
field sum 11
field sqrsum 121
field min 11
field max 11
attr interpolationmode  sample-hold
attr title  "channel no, histogram"
bin	-INF	0
bin	10	0
bin	11	1
bin	12	0
scalar DataCentricNet.host[4].nic.phy 	bitrate:min 	250000
attr interpolationmode  sample-hold
attr title  "tx bitrate, min"
attr unit  bps
scalar DataCentricNet.host[4].nic.phy 	bitrate:max 	250000
attr interpolationmode  sample-hold
attr title  "tx bitrate, max"
attr unit  bps
scalar DataCentricNet.host[4].nic.phy 	bitrate:timeavg 	250000
attr interpolationmode  sample-hold
attr title  "tx bitrate, timeavg"
attr unit  bps
scalar DataCentricNet.host[5].app 	trafficSent 	0
scalar DataCentricNet.host[5].app 	"total bytes received" 	0
scalar DataCentricNet.host[5].net 	NumberOfNeighbours 	4
scalar DataCentricNet.host[5].net 	"num of pkts forwarded" 	0
scalar DataCentricNet.host[5].nic.ifq 	queueLength:max 	0
attr interpolationmode  sample-hold
attr title  "queue length, max"
scalar DataCentricNet.host[5].nic.ifq 	queueLength:timeavg 	0
attr interpolationmode  sample-hold
attr title  "queue length, timeavg"
statistic DataCentricNet.host[5].nic.ifq 	queueingTime:histogram
field count 2
field mean 0
field stddev 0
field sum 0
field sqrsum 0
field min 0
field max 0
attr interpolationmode  none
attr title  "queueing time, histogram"
bin	-INF	0
bin	-0.5	0
bin	-0.46666666666667	0
bin	-0.43333333333333	0
bin	-0.4	0
bin	-0.36666666666667	0
bin	-0.33333333333333	0
bin	-0.3	0
bin	-0.26666666666667	0
bin	-0.23333333333333	0
bin	-0.2	0
bin	-0.16666666666667	0
bin	-0.13333333333333	0
bin	-0.1	0
bin	-0.066666666666667	0
bin	-0.033333333333333	0
bin	-6.9388939039072e-018	2
bin	0.033333333333333	0
bin	0.066666666666667	0
bin	0.1	0
bin	0.13333333333333	0
bin	0.16666666666667	0
bin	0.2	0
bin	0.23333333333333	0
bin	0.26666666666667	0
bin	0.3	0
bin	0.33333333333333	0
bin	0.36666666666667	0
bin	0.4	0
bin	0.43333333333333	0
bin	0.46666666666667	0
bin	0.5	0
scalar DataCentricNet.host[5].nic.ifq 	dropPk:count 	0
attr interpolationmode  none
attr source  dropPkByQueue
attr title  "dropped packets, count"
scalar DataCentricNet.host[5].nic.ifq 	dropPk:sum(packetBytes) 	0
attr interpolationmode  none
attr source  dropPkByQueue
attr title  "dropped packets, sum(packetBytes)"
scalar DataCentricNet.host[5].nic.mac 	nbTxFrames 	2
scalar DataCentricNet.host[5].nic.mac 	nbRxFrames 	0
scalar DataCentricNet.host[5].nic.mac 	nbDroppedFrames 	0
scalar DataCentricNet.host[5].nic.mac 	nbMissedAcks 	0
scalar DataCentricNet.host[5].nic.mac 	nbRecvdAcks 	0
scalar DataCentricNet.host[5].nic.mac 	nbTxAcks 	0
scalar DataCentricNet.host[5].nic.mac 	nbDuplicates 	0
scalar DataCentricNet.host[5].nic.mac 	meanBackoff 	0.00344
scalar DataCentricNet.host[5].nic.mac 	nbBackoffs 	4
scalar DataCentricNet.host[5].nic.mac 	backoffDurations 	0.01376
scalar DataCentricNet.host[5].nic.phy 	lossRate:min 	-1.#IND
attr interpolationmode  backward-sample-hold
attr title  "packet loss rate, min"
scalar DataCentricNet.host[5].nic.phy 	lossRate:max 	-1.#IND
attr interpolationmode  backward-sample-hold
attr title  "packet loss rate, max"
scalar DataCentricNet.host[5].nic.phy 	lossRate:timeavg 	-1.#IND
attr interpolationmode  backward-sample-hold
attr title  "packet loss rate, timeavg"
scalar DataCentricNet.host[5].nic.phy 	radioState:count 	69
attr interpolationmode  sample-hold
attr title  "radio state (enum), count"
statistic DataCentricNet.host[5].nic.phy 	channelNo:histogram
field count 1
field mean 11
field stddev -1.#IND
field sum 11
field sqrsum 121
field min 11
field max 11
attr interpolationmode  sample-hold
attr title  "channel no, histogram"
bin	-INF	0
bin	10	0
bin	11	1
bin	12	0
scalar DataCentricNet.host[5].nic.phy 	bitrate:min 	250000
attr interpolationmode  sample-hold
attr title  "tx bitrate, min"
attr unit  bps
scalar DataCentricNet.host[5].nic.phy 	bitrate:max 	250000
attr interpolationmode  sample-hold
attr title  "tx bitrate, max"
attr unit  bps
scalar DataCentricNet.host[5].nic.phy 	bitrate:timeavg 	250000
attr interpolationmode  sample-hold
attr title  "tx bitrate, timeavg"
attr unit  bps
scalar DataCentricNet.host[6].app 	trafficSent 	0
scalar DataCentricNet.host[6].app 	"total bytes received" 	0
scalar DataCentricNet.host[6].net 	NumberOfNeighbours 	5
scalar DataCentricNet.host[6].net 	"num of pkts forwarded" 	0
scalar DataCentricNet.host[6].nic.ifq 	queueLength:max 	0
attr interpolationmode  sample-hold
attr title  "queue length, max"
scalar DataCentricNet.host[6].nic.ifq 	queueLength:timeavg 	0
attr interpolationmode  sample-hold
attr title  "queue length, timeavg"
statistic DataCentricNet.host[6].nic.ifq 	queueingTime:histogram
field count 2
field mean 0
field stddev 0
field sum 0
field sqrsum 0
field min 0
field max 0
attr interpolationmode  none
attr title  "queueing time, histogram"
bin	-INF	0
bin	-0.5	0
bin	-0.46666666666667	0
bin	-0.43333333333333	0
bin	-0.4	0
bin	-0.36666666666667	0
bin	-0.33333333333333	0
bin	-0.3	0
bin	-0.26666666666667	0
bin	-0.23333333333333	0
bin	-0.2	0
bin	-0.16666666666667	0
bin	-0.13333333333333	0
bin	-0.1	0
bin	-0.066666666666667	0
bin	-0.033333333333333	0
bin	-6.9388939039072e-018	2
bin	0.033333333333333	0
bin	0.066666666666667	0
bin	0.1	0
bin	0.13333333333333	0
bin	0.16666666666667	0
bin	0.2	0
bin	0.23333333333333	0
bin	0.26666666666667	0
bin	0.3	0
bin	0.33333333333333	0
bin	0.36666666666667	0
bin	0.4	0
bin	0.43333333333333	0
bin	0.46666666666667	0
bin	0.5	0
scalar DataCentricNet.host[6].nic.ifq 	dropPk:count 	0
attr interpolationmode  none
attr source  dropPkByQueue
attr title  "dropped packets, count"
scalar DataCentricNet.host[6].nic.ifq 	dropPk:sum(packetBytes) 	0
attr interpolationmode  none
attr source  dropPkByQueue
attr title  "dropped packets, sum(packetBytes)"
scalar DataCentricNet.host[6].nic.mac 	nbTxFrames 	2
scalar DataCentricNet.host[6].nic.mac 	nbRxFrames 	0
scalar DataCentricNet.host[6].nic.mac 	nbDroppedFrames 	0
scalar DataCentricNet.host[6].nic.mac 	nbMissedAcks 	0
scalar DataCentricNet.host[6].nic.mac 	nbRecvdAcks 	0
scalar DataCentricNet.host[6].nic.mac 	nbTxAcks 	0
scalar DataCentricNet.host[6].nic.mac 	nbDuplicates 	0
scalar DataCentricNet.host[6].nic.mac 	meanBackoff 	0.00128
scalar DataCentricNet.host[6].nic.mac 	nbBackoffs 	2
scalar DataCentricNet.host[6].nic.mac 	backoffDurations 	0.00256
scalar DataCentricNet.host[6].nic.phy 	lossRate:min 	-1.#IND
attr interpolationmode  backward-sample-hold
attr title  "packet loss rate, min"
scalar DataCentricNet.host[6].nic.phy 	lossRate:max 	-1.#IND
attr interpolationmode  backward-sample-hold
attr title  "packet loss rate, max"
scalar DataCentricNet.host[6].nic.phy 	lossRate:timeavg 	-1.#IND
attr interpolationmode  backward-sample-hold
attr title  "packet loss rate, timeavg"
scalar DataCentricNet.host[6].nic.phy 	radioState:count 	69
attr interpolationmode  sample-hold
attr title  "radio state (enum), count"
statistic DataCentricNet.host[6].nic.phy 	channelNo:histogram
field count 1
field mean 11
field stddev -1.#IND
field sum 11
field sqrsum 121
field min 11
field max 11
attr interpolationmode  sample-hold
attr title  "channel no, histogram"
bin	-INF	0
bin	10	0
bin	11	1
bin	12	0
scalar DataCentricNet.host[6].nic.phy 	bitrate:min 	250000
attr interpolationmode  sample-hold
attr title  "tx bitrate, min"
attr unit  bps
scalar DataCentricNet.host[6].nic.phy 	bitrate:max 	250000
attr interpolationmode  sample-hold
attr title  "tx bitrate, max"
attr unit  bps
scalar DataCentricNet.host[6].nic.phy 	bitrate:timeavg 	250000
attr interpolationmode  sample-hold
attr title  "tx bitrate, timeavg"
attr unit  bps
scalar DataCentricNet.host[7].app 	trafficSent 	0
scalar DataCentricNet.host[7].app 	"total bytes received" 	0
scalar DataCentricNet.host[7].net 	NumberOfNeighbours 	5
scalar DataCentricNet.host[7].net 	"num of pkts forwarded" 	0
scalar DataCentricNet.host[7].nic.ifq 	queueLength:max 	0
attr interpolationmode  sample-hold
attr title  "queue length, max"
scalar DataCentricNet.host[7].nic.ifq 	queueLength:timeavg 	0
attr interpolationmode  sample-hold
attr title  "queue length, timeavg"
statistic DataCentricNet.host[7].nic.ifq 	queueingTime:histogram
field count 3
field mean 0
field stddev 0
field sum 0
field sqrsum 0
field min 0
field max 0
attr interpolationmode  none
attr title  "queueing time, histogram"
bin	-INF	0
bin	-0.5	0
bin	-0.46666666666667	0
bin	-0.43333333333333	0
bin	-0.4	0
bin	-0.36666666666667	0
bin	-0.33333333333333	0
bin	-0.3	0
bin	-0.26666666666667	0
bin	-0.23333333333333	0
bin	-0.2	0
bin	-0.16666666666667	0
bin	-0.13333333333333	0
bin	-0.1	0
bin	-0.066666666666667	0
bin	-0.033333333333333	0
bin	-6.9388939039072e-018	3
bin	0.033333333333333	0
bin	0.066666666666667	0
bin	0.1	0
bin	0.13333333333333	0
bin	0.16666666666667	0
bin	0.2	0
bin	0.23333333333333	0
bin	0.26666666666667	0
bin	0.3	0
bin	0.33333333333333	0
bin	0.36666666666667	0
bin	0.4	0
bin	0.43333333333333	0
bin	0.46666666666667	0
bin	0.5	0
scalar DataCentricNet.host[7].nic.ifq 	dropPk:count 	0
attr interpolationmode  none
attr source  dropPkByQueue
attr title  "dropped packets, count"
scalar DataCentricNet.host[7].nic.ifq 	dropPk:sum(packetBytes) 	0
attr interpolationmode  none
attr source  dropPkByQueue
attr title  "dropped packets, sum(packetBytes)"
scalar DataCentricNet.host[7].nic.mac 	nbTxFrames 	3
scalar DataCentricNet.host[7].nic.mac 	nbRxFrames 	0
scalar DataCentricNet.host[7].nic.mac 	nbDroppedFrames 	0
scalar DataCentricNet.host[7].nic.mac 	nbMissedAcks 	0
scalar DataCentricNet.host[7].nic.mac 	nbRecvdAcks 	0
scalar DataCentricNet.host[7].nic.mac 	nbTxAcks 	0
scalar DataCentricNet.host[7].nic.mac 	nbDuplicates 	0
scalar DataCentricNet.host[7].nic.mac 	meanBackoff 	0.0016
scalar DataCentricNet.host[7].nic.mac 	nbBackoffs 	4
scalar DataCentricNet.host[7].nic.mac 	backoffDurations 	0.0064
scalar DataCentricNet.host[7].nic.phy 	lossRate:min 	-1.#IND
attr interpolationmode  backward-sample-hold
attr title  "packet loss rate, min"
scalar DataCentricNet.host[7].nic.phy 	lossRate:max 	-1.#IND
attr interpolationmode  backward-sample-hold
attr title  "packet loss rate, max"
scalar DataCentricNet.host[7].nic.phy 	lossRate:timeavg 	-1.#IND
attr interpolationmode  backward-sample-hold
attr title  "packet loss rate, timeavg"
scalar DataCentricNet.host[7].nic.phy 	radioState:count 	66
attr interpolationmode  sample-hold
attr title  "radio state (enum), count"
statistic DataCentricNet.host[7].nic.phy 	channelNo:histogram
field count 1
field mean 11
field stddev -1.#IND
field sum 11
field sqrsum 121
field min 11
field max 11
attr interpolationmode  sample-hold
attr title  "channel no, histogram"
bin	-INF	0
bin	10	0
bin	11	1
bin	12	0
scalar DataCentricNet.host[7].nic.phy 	bitrate:min 	250000
attr interpolationmode  sample-hold
attr title  "tx bitrate, min"
attr unit  bps
scalar DataCentricNet.host[7].nic.phy 	bitrate:max 	250000
attr interpolationmode  sample-hold
attr title  "tx bitrate, max"
attr unit  bps
scalar DataCentricNet.host[7].nic.phy 	bitrate:timeavg 	250000
attr interpolationmode  sample-hold
attr title  "tx bitrate, timeavg"
attr unit  bps
scalar DataCentricNet.host[8].app 	trafficSent 	0
scalar DataCentricNet.host[8].app 	"total bytes received" 	0
scalar DataCentricNet.host[8].net 	NumberOfNeighbours 	5
scalar DataCentricNet.host[8].net 	"num of pkts forwarded" 	0
scalar DataCentricNet.host[8].nic.ifq 	queueLength:max 	0
attr interpolationmode  sample-hold
attr title  "queue length, max"
scalar DataCentricNet.host[8].nic.ifq 	queueLength:timeavg 	0
attr interpolationmode  sample-hold
attr title  "queue length, timeavg"
statistic DataCentricNet.host[8].nic.ifq 	queueingTime:histogram
field count 4
field mean 0
field stddev 0
field sum 0
field sqrsum 0
field min 0
field max 0
attr interpolationmode  none
attr title  "queueing time, histogram"
bin	-INF	0
bin	-0.5	0
bin	-0.46666666666667	0
bin	-0.43333333333333	0
bin	-0.4	0
bin	-0.36666666666667	0
bin	-0.33333333333333	0
bin	-0.3	0
bin	-0.26666666666667	0
bin	-0.23333333333333	0
bin	-0.2	0
bin	-0.16666666666667	0
bin	-0.13333333333333	0
bin	-0.1	0
bin	-0.066666666666667	0
bin	-0.033333333333333	0
bin	-6.9388939039072e-018	4
bin	0.033333333333333	0
bin	0.066666666666667	0
bin	0.1	0
bin	0.13333333333333	0
bin	0.16666666666667	0
bin	0.2	0
bin	0.23333333333333	0
bin	0.26666666666667	0
bin	0.3	0
bin	0.33333333333333	0
bin	0.36666666666667	0
bin	0.4	0
bin	0.43333333333333	0
bin	0.46666666666667	0
bin	0.5	0
scalar DataCentricNet.host[8].nic.ifq 	dropPk:count 	0
attr interpolationmode  none
attr source  dropPkByQueue
attr title  "dropped packets, count"
scalar DataCentricNet.host[8].nic.ifq 	dropPk:sum(packetBytes) 	0
attr interpolationmode  none
attr source  dropPkByQueue
attr title  "dropped packets, sum(packetBytes)"
scalar DataCentricNet.host[8].nic.mac 	nbTxFrames 	4
scalar DataCentricNet.host[8].nic.mac 	nbRxFrames 	0
scalar DataCentricNet.host[8].nic.mac 	nbDroppedFrames 	0
scalar DataCentricNet.host[8].nic.mac 	nbMissedAcks 	0
scalar DataCentricNet.host[8].nic.mac 	nbRecvdAcks 	0
scalar DataCentricNet.host[8].nic.mac 	nbTxAcks 	0
scalar DataCentricNet.host[8].nic.mac 	nbDuplicates 	0
scalar DataCentricNet.host[8].nic.mac 	meanBackoff 	0.0012
scalar DataCentricNet.host[8].nic.mac 	nbBackoffs 	4
scalar DataCentricNet.host[8].nic.mac 	backoffDurations 	0.0048
scalar DataCentricNet.host[8].nic.phy 	lossRate:min 	-1.#IND
attr interpolationmode  backward-sample-hold
attr title  "packet loss rate, min"
scalar DataCentricNet.host[8].nic.phy 	lossRate:max 	-1.#IND
attr interpolationmode  backward-sample-hold
attr title  "packet loss rate, max"
scalar DataCentricNet.host[8].nic.phy 	lossRate:timeavg 	-1.#IND
attr interpolationmode  backward-sample-hold
attr title  "packet loss rate, timeavg"
scalar DataCentricNet.host[8].nic.phy 	radioState:count 	67
attr interpolationmode  sample-hold
attr title  "radio state (enum), count"
statistic DataCentricNet.host[8].nic.phy 	channelNo:histogram
field count 1
field mean 11
field stddev -1.#IND
field sum 11
field sqrsum 121
field min 11
field max 11
attr interpolationmode  sample-hold
attr title  "channel no, histogram"
bin	-INF	0
bin	10	0
bin	11	1
bin	12	0
scalar DataCentricNet.host[8].nic.phy 	bitrate:min 	250000
attr interpolationmode  sample-hold
attr title  "tx bitrate, min"
attr unit  bps
scalar DataCentricNet.host[8].nic.phy 	bitrate:max 	250000
attr interpolationmode  sample-hold
attr title  "tx bitrate, max"
attr unit  bps
scalar DataCentricNet.host[8].nic.phy 	bitrate:timeavg 	250000
attr interpolationmode  sample-hold
attr title  "tx bitrate, timeavg"
attr unit  bps
scalar DataCentricNet.host[9].app 	trafficSent 	0
scalar DataCentricNet.host[9].app 	"total bytes received" 	0
scalar DataCentricNet.host[9].net 	NumberOfNeighbours 	3
scalar DataCentricNet.host[9].net 	"num of pkts forwarded" 	0
scalar DataCentricNet.host[9].nic.ifq 	queueLength:max 	0
attr interpolationmode  sample-hold
attr title  "queue length, max"
scalar DataCentricNet.host[9].nic.ifq 	queueLength:timeavg 	0
attr interpolationmode  sample-hold
attr title  "queue length, timeavg"
statistic DataCentricNet.host[9].nic.ifq 	queueingTime:histogram
field count 2
field mean 0
field stddev 0
field sum 0
field sqrsum 0
field min 0
field max 0
attr interpolationmode  none
attr title  "queueing time, histogram"
bin	-INF	0
bin	-0.5	0
bin	-0.46666666666667	0
bin	-0.43333333333333	0
bin	-0.4	0
bin	-0.36666666666667	0
bin	-0.33333333333333	0
bin	-0.3	0
bin	-0.26666666666667	0
bin	-0.23333333333333	0
bin	-0.2	0
bin	-0.16666666666667	0
bin	-0.13333333333333	0
bin	-0.1	0
bin	-0.066666666666667	0
bin	-0.033333333333333	0
bin	-6.9388939039072e-018	2
bin	0.033333333333333	0
bin	0.066666666666667	0
bin	0.1	0
bin	0.13333333333333	0
bin	0.16666666666667	0
bin	0.2	0
bin	0.23333333333333	0
bin	0.26666666666667	0
bin	0.3	0
bin	0.33333333333333	0
bin	0.36666666666667	0
bin	0.4	0
bin	0.43333333333333	0
bin	0.46666666666667	0
bin	0.5	0
scalar DataCentricNet.host[9].nic.ifq 	dropPk:count 	0
attr interpolationmode  none
attr source  dropPkByQueue
attr title  "dropped packets, count"
scalar DataCentricNet.host[9].nic.ifq 	dropPk:sum(packetBytes) 	0
attr interpolationmode  none
attr source  dropPkByQueue
attr title  "dropped packets, sum(packetBytes)"
scalar DataCentricNet.host[9].nic.mac 	nbTxFrames 	2
scalar DataCentricNet.host[9].nic.mac 	nbRxFrames 	0
scalar DataCentricNet.host[9].nic.mac 	nbDroppedFrames 	0
scalar DataCentricNet.host[9].nic.mac 	nbMissedAcks 	0
scalar DataCentricNet.host[9].nic.mac 	nbRecvdAcks 	0
scalar DataCentricNet.host[9].nic.mac 	nbTxAcks 	0
scalar DataCentricNet.host[9].nic.mac 	nbDuplicates 	0
scalar DataCentricNet.host[9].nic.mac 	meanBackoff 	0.00128
scalar DataCentricNet.host[9].nic.mac 	nbBackoffs 	2
scalar DataCentricNet.host[9].nic.mac 	backoffDurations 	0.00256
scalar DataCentricNet.host[9].nic.phy 	lossRate:min 	-1.#IND
attr interpolationmode  backward-sample-hold
attr title  "packet loss rate, min"
scalar DataCentricNet.host[9].nic.phy 	lossRate:max 	-1.#IND
attr interpolationmode  backward-sample-hold
attr title  "packet loss rate, max"
scalar DataCentricNet.host[9].nic.phy 	lossRate:timeavg 	-1.#IND
attr interpolationmode  backward-sample-hold
attr title  "packet loss rate, timeavg"
scalar DataCentricNet.host[9].nic.phy 	radioState:count 	43
attr interpolationmode  sample-hold
attr title  "radio state (enum), count"
statistic DataCentricNet.host[9].nic.phy 	channelNo:histogram
field count 1
field mean 11
field stddev -1.#IND
field sum 11
field sqrsum 121
field min 11
field max 11
attr interpolationmode  sample-hold
attr title  "channel no, histogram"
bin	-INF	0
bin	10	0
bin	11	1
bin	12	0
scalar DataCentricNet.host[9].nic.phy 	bitrate:min 	250000
attr interpolationmode  sample-hold
attr title  "tx bitrate, min"
attr unit  bps
scalar DataCentricNet.host[9].nic.phy 	bitrate:max 	250000
attr interpolationmode  sample-hold
attr title  "tx bitrate, max"
attr unit  bps
scalar DataCentricNet.host[9].nic.phy 	bitrate:timeavg 	250000
attr interpolationmode  sample-hold
attr title  "tx bitrate, timeavg"
attr unit  bps
scalar DataCentricNet.host[10].app 	trafficSent 	0
scalar DataCentricNet.host[10].app 	"total bytes received" 	0
scalar DataCentricNet.host[10].net 	NumberOfNeighbours 	4
scalar DataCentricNet.host[10].net 	"num of pkts forwarded" 	0
scalar DataCentricNet.host[10].nic.ifq 	queueLength:max 	0
attr interpolationmode  sample-hold
attr title  "queue length, max"
scalar DataCentricNet.host[10].nic.ifq 	queueLength:timeavg 	0
attr interpolationmode  sample-hold
attr title  "queue length, timeavg"
statistic DataCentricNet.host[10].nic.ifq 	queueingTime:histogram
field count 2
field mean 0
field stddev 0
field sum 0
field sqrsum 0
field min 0
field max 0
attr interpolationmode  none
attr title  "queueing time, histogram"
bin	-INF	0
bin	-0.5	0
bin	-0.46666666666667	0
bin	-0.43333333333333	0
bin	-0.4	0
bin	-0.36666666666667	0
bin	-0.33333333333333	0
bin	-0.3	0
bin	-0.26666666666667	0
bin	-0.23333333333333	0
bin	-0.2	0
bin	-0.16666666666667	0
bin	-0.13333333333333	0
bin	-0.1	0
bin	-0.066666666666667	0
bin	-0.033333333333333	0
bin	-6.9388939039072e-018	2
bin	0.033333333333333	0
bin	0.066666666666667	0
bin	0.1	0
bin	0.13333333333333	0
bin	0.16666666666667	0
bin	0.2	0
bin	0.23333333333333	0
bin	0.26666666666667	0
bin	0.3	0
bin	0.33333333333333	0
bin	0.36666666666667	0
bin	0.4	0
bin	0.43333333333333	0
bin	0.46666666666667	0
bin	0.5	0
scalar DataCentricNet.host[10].nic.ifq 	dropPk:count 	0
attr interpolationmode  none
attr source  dropPkByQueue
attr title  "dropped packets, count"
scalar DataCentricNet.host[10].nic.ifq 	dropPk:sum(packetBytes) 	0
attr interpolationmode  none
attr source  dropPkByQueue
attr title  "dropped packets, sum(packetBytes)"
scalar DataCentricNet.host[10].nic.mac 	nbTxFrames 	2
scalar DataCentricNet.host[10].nic.mac 	nbRxFrames 	1
scalar DataCentricNet.host[10].nic.mac 	nbDroppedFrames 	0
scalar DataCentricNet.host[10].nic.mac 	nbMissedAcks 	0
scalar DataCentricNet.host[10].nic.mac 	nbRecvdAcks 	0
scalar DataCentricNet.host[10].nic.mac 	nbTxAcks 	1
scalar DataCentricNet.host[10].nic.mac 	nbDuplicates 	0
scalar DataCentricNet.host[10].nic.mac 	meanBackoff 	0.00096
scalar DataCentricNet.host[10].nic.mac 	nbBackoffs 	2
scalar DataCentricNet.host[10].nic.mac 	backoffDurations 	0.00192
scalar DataCentricNet.host[10].nic.phy 	lossRate:min 	-1.#IND
attr interpolationmode  backward-sample-hold
attr title  "packet loss rate, min"
scalar DataCentricNet.host[10].nic.phy 	lossRate:max 	-1.#IND
attr interpolationmode  backward-sample-hold
attr title  "packet loss rate, max"
scalar DataCentricNet.host[10].nic.phy 	lossRate:timeavg 	-1.#IND
attr interpolationmode  backward-sample-hold
attr title  "packet loss rate, timeavg"
scalar DataCentricNet.host[10].nic.phy 	radioState:count 	64
attr interpolationmode  sample-hold
attr title  "radio state (enum), count"
statistic DataCentricNet.host[10].nic.phy 	channelNo:histogram
field count 1
field mean 11
field stddev -1.#IND
field sum 11
field sqrsum 121
field min 11
field max 11
attr interpolationmode  sample-hold
attr title  "channel no, histogram"
bin	-INF	0
bin	10	0
bin	11	1
bin	12	0
scalar DataCentricNet.host[10].nic.phy 	bitrate:min 	250000
attr interpolationmode  sample-hold
attr title  "tx bitrate, min"
attr unit  bps
scalar DataCentricNet.host[10].nic.phy 	bitrate:max 	250000
attr interpolationmode  sample-hold
attr title  "tx bitrate, max"
attr unit  bps
scalar DataCentricNet.host[10].nic.phy 	bitrate:timeavg 	250000
attr interpolationmode  sample-hold
attr title  "tx bitrate, timeavg"
attr unit  bps
scalar DataCentricNet.host[11].app 	trafficSent 	0
scalar DataCentricNet.host[11].app 	"total bytes received" 	0
scalar DataCentricNet.host[11].net 	NumberOfNeighbours 	8
scalar DataCentricNet.host[11].net 	"num of pkts forwarded" 	0
scalar DataCentricNet.host[11].nic.ifq 	queueLength:max 	0
attr interpolationmode  sample-hold
attr title  "queue length, max"
scalar DataCentricNet.host[11].nic.ifq 	queueLength:timeavg 	0
attr interpolationmode  sample-hold
attr title  "queue length, timeavg"
statistic DataCentricNet.host[11].nic.ifq 	queueingTime:histogram
field count 3
field mean 0
field stddev 0
field sum 0
field sqrsum 0
field min 0
field max 0
attr interpolationmode  none
attr title  "queueing time, histogram"
bin	-INF	0
bin	-0.5	0
bin	-0.46666666666667	0
bin	-0.43333333333333	0
bin	-0.4	0
bin	-0.36666666666667	0
bin	-0.33333333333333	0
bin	-0.3	0
bin	-0.26666666666667	0
bin	-0.23333333333333	0
bin	-0.2	0
bin	-0.16666666666667	0
bin	-0.13333333333333	0
bin	-0.1	0
bin	-0.066666666666667	0
bin	-0.033333333333333	0
bin	-6.9388939039072e-018	3
bin	0.033333333333333	0
bin	0.066666666666667	0
bin	0.1	0
bin	0.13333333333333	0
bin	0.16666666666667	0
bin	0.2	0
bin	0.23333333333333	0
bin	0.26666666666667	0
bin	0.3	0
bin	0.33333333333333	0
bin	0.36666666666667	0
bin	0.4	0
bin	0.43333333333333	0
bin	0.46666666666667	0
bin	0.5	0
scalar DataCentricNet.host[11].nic.ifq 	dropPk:count 	0
attr interpolationmode  none
attr source  dropPkByQueue
attr title  "dropped packets, count"
scalar DataCentricNet.host[11].nic.ifq 	dropPk:sum(packetBytes) 	0
attr interpolationmode  none
attr source  dropPkByQueue
attr title  "dropped packets, sum(packetBytes)"
scalar DataCentricNet.host[11].nic.mac 	nbTxFrames 	3
scalar DataCentricNet.host[11].nic.mac 	nbRxFrames 	0
scalar DataCentricNet.host[11].nic.mac 	nbDroppedFrames 	0
scalar DataCentricNet.host[11].nic.mac 	nbMissedAcks 	0
scalar DataCentricNet.host[11].nic.mac 	nbRecvdAcks 	0
scalar DataCentricNet.host[11].nic.mac 	nbTxAcks 	0
scalar DataCentricNet.host[11].nic.mac 	nbDuplicates 	0
scalar DataCentricNet.host[11].nic.mac 	meanBackoff 	0.00096
scalar DataCentricNet.host[11].nic.mac 	nbBackoffs 	3
scalar DataCentricNet.host[11].nic.mac 	backoffDurations 	0.00288
scalar DataCentricNet.host[11].nic.phy 	lossRate:min 	-1.#IND
attr interpolationmode  backward-sample-hold
attr title  "packet loss rate, min"
scalar DataCentricNet.host[11].nic.phy 	lossRate:max 	-1.#IND
attr interpolationmode  backward-sample-hold
attr title  "packet loss rate, max"
scalar DataCentricNet.host[11].nic.phy 	lossRate:timeavg 	-1.#IND
attr interpolationmode  backward-sample-hold
attr title  "packet loss rate, timeavg"
scalar DataCentricNet.host[11].nic.phy 	radioState:count 	79
attr interpolationmode  sample-hold
attr title  "radio state (enum), count"
statistic DataCentricNet.host[11].nic.phy 	channelNo:histogram
field count 1
field mean 11
field stddev -1.#IND
field sum 11
field sqrsum 121
field min 11
field max 11
attr interpolationmode  sample-hold
attr title  "channel no, histogram"
bin	-INF	0
bin	10	0
bin	11	1
bin	12	0
scalar DataCentricNet.host[11].nic.phy 	bitrate:min 	250000
attr interpolationmode  sample-hold
attr title  "tx bitrate, min"
attr unit  bps
scalar DataCentricNet.host[11].nic.phy 	bitrate:max 	250000
attr interpolationmode  sample-hold
attr title  "tx bitrate, max"
attr unit  bps
scalar DataCentricNet.host[11].nic.phy 	bitrate:timeavg 	250000
attr interpolationmode  sample-hold
attr title  "tx bitrate, timeavg"
attr unit  bps
scalar DataCentricNet.host[12].app 	trafficSent 	0
scalar DataCentricNet.host[12].app 	"total bytes received" 	0
scalar DataCentricNet.host[12].net 	NumberOfNeighbours 	7
scalar DataCentricNet.host[12].net 	"num of pkts forwarded" 	0
scalar DataCentricNet.host[12].nic.ifq 	queueLength:max 	0
attr interpolationmode  sample-hold
attr title  "queue length, max"
scalar DataCentricNet.host[12].nic.ifq 	queueLength:timeavg 	0
attr interpolationmode  sample-hold
attr title  "queue length, timeavg"
statistic DataCentricNet.host[12].nic.ifq 	queueingTime:histogram
field count 3
field mean 0
field stddev 0
field sum 0
field sqrsum 0
field min 0
field max 0
attr interpolationmode  none
attr title  "queueing time, histogram"
bin	-INF	0
bin	-0.5	0
bin	-0.46666666666667	0
bin	-0.43333333333333	0
bin	-0.4	0
bin	-0.36666666666667	0
bin	-0.33333333333333	0
bin	-0.3	0
bin	-0.26666666666667	0
bin	-0.23333333333333	0
bin	-0.2	0
bin	-0.16666666666667	0
bin	-0.13333333333333	0
bin	-0.1	0
bin	-0.066666666666667	0
bin	-0.033333333333333	0
bin	-6.9388939039072e-018	3
bin	0.033333333333333	0
bin	0.066666666666667	0
bin	0.1	0
bin	0.13333333333333	0
bin	0.16666666666667	0
bin	0.2	0
bin	0.23333333333333	0
bin	0.26666666666667	0
bin	0.3	0
bin	0.33333333333333	0
bin	0.36666666666667	0
bin	0.4	0
bin	0.43333333333333	0
bin	0.46666666666667	0
bin	0.5	0
scalar DataCentricNet.host[12].nic.ifq 	dropPk:count 	0
attr interpolationmode  none
attr source  dropPkByQueue
attr title  "dropped packets, count"
scalar DataCentricNet.host[12].nic.ifq 	dropPk:sum(packetBytes) 	0
attr interpolationmode  none
attr source  dropPkByQueue
attr title  "dropped packets, sum(packetBytes)"
scalar DataCentricNet.host[12].nic.mac 	nbTxFrames 	3
scalar DataCentricNet.host[12].nic.mac 	nbRxFrames 	0
scalar DataCentricNet.host[12].nic.mac 	nbDroppedFrames 	0
scalar DataCentricNet.host[12].nic.mac 	nbMissedAcks 	0
scalar DataCentricNet.host[12].nic.mac 	nbRecvdAcks 	0
scalar DataCentricNet.host[12].nic.mac 	nbTxAcks 	0
scalar DataCentricNet.host[12].nic.mac 	nbDuplicates 	0
scalar DataCentricNet.host[12].nic.mac 	meanBackoff 	0.00136
scalar DataCentricNet.host[12].nic.mac 	nbBackoffs 	4
scalar DataCentricNet.host[12].nic.mac 	backoffDurations 	0.00544
scalar DataCentricNet.host[12].nic.phy 	lossRate:min 	-1.#IND
attr interpolationmode  backward-sample-hold
attr title  "packet loss rate, min"
scalar DataCentricNet.host[12].nic.phy 	lossRate:max 	-1.#IND
attr interpolationmode  backward-sample-hold
attr title  "packet loss rate, max"
scalar DataCentricNet.host[12].nic.phy 	lossRate:timeavg 	-1.#IND
attr interpolationmode  backward-sample-hold
attr title  "packet loss rate, timeavg"
scalar DataCentricNet.host[12].nic.phy 	radioState:count 	79
attr interpolationmode  sample-hold
attr title  "radio state (enum), count"
statistic DataCentricNet.host[12].nic.phy 	channelNo:histogram
field count 1
field mean 11
field stddev -1.#IND
field sum 11
field sqrsum 121
field min 11
field max 11
attr interpolationmode  sample-hold
attr title  "channel no, histogram"
bin	-INF	0
bin	10	0
bin	11	1
bin	12	0
scalar DataCentricNet.host[12].nic.phy 	bitrate:min 	250000
attr interpolationmode  sample-hold
attr title  "tx bitrate, min"
attr unit  bps
scalar DataCentricNet.host[12].nic.phy 	bitrate:max 	250000
attr interpolationmode  sample-hold
attr title  "tx bitrate, max"
attr unit  bps
scalar DataCentricNet.host[12].nic.phy 	bitrate:timeavg 	250000
attr interpolationmode  sample-hold
attr title  "tx bitrate, timeavg"
attr unit  bps
scalar DataCentricNet.host[13].app 	trafficSent 	0
scalar DataCentricNet.host[13].app 	"total bytes received" 	0
scalar DataCentricNet.host[13].net 	NumberOfNeighbours 	5
scalar DataCentricNet.host[13].net 	"num of pkts forwarded" 	0
scalar DataCentricNet.host[13].nic.ifq 	queueLength:max 	0
attr interpolationmode  sample-hold
attr title  "queue length, max"
scalar DataCentricNet.host[13].nic.ifq 	queueLength:timeavg 	0
attr interpolationmode  sample-hold
attr title  "queue length, timeavg"
statistic DataCentricNet.host[13].nic.ifq 	queueingTime:histogram
field count 3
field mean 0
field stddev 0
field sum 0
field sqrsum 0
field min 0
field max 0
attr interpolationmode  none
attr title  "queueing time, histogram"
bin	-INF	0
bin	-0.5	0
bin	-0.46666666666667	0
bin	-0.43333333333333	0
bin	-0.4	0
bin	-0.36666666666667	0
bin	-0.33333333333333	0
bin	-0.3	0
bin	-0.26666666666667	0
bin	-0.23333333333333	0
bin	-0.2	0
bin	-0.16666666666667	0
bin	-0.13333333333333	0
bin	-0.1	0
bin	-0.066666666666667	0
bin	-0.033333333333333	0
bin	-6.9388939039072e-018	3
bin	0.033333333333333	0
bin	0.066666666666667	0
bin	0.1	0
bin	0.13333333333333	0
bin	0.16666666666667	0
bin	0.2	0
bin	0.23333333333333	0
bin	0.26666666666667	0
bin	0.3	0
bin	0.33333333333333	0
bin	0.36666666666667	0
bin	0.4	0
bin	0.43333333333333	0
bin	0.46666666666667	0
bin	0.5	0
scalar DataCentricNet.host[13].nic.ifq 	dropPk:count 	0
attr interpolationmode  none
attr source  dropPkByQueue
attr title  "dropped packets, count"
scalar DataCentricNet.host[13].nic.ifq 	dropPk:sum(packetBytes) 	0
attr interpolationmode  none
attr source  dropPkByQueue
attr title  "dropped packets, sum(packetBytes)"
scalar DataCentricNet.host[13].nic.mac 	nbTxFrames 	3
scalar DataCentricNet.host[13].nic.mac 	nbRxFrames 	0
scalar DataCentricNet.host[13].nic.mac 	nbDroppedFrames 	0
scalar DataCentricNet.host[13].nic.mac 	nbMissedAcks 	0
scalar DataCentricNet.host[13].nic.mac 	nbRecvdAcks 	0
scalar DataCentricNet.host[13].nic.mac 	nbTxAcks 	0
scalar DataCentricNet.host[13].nic.mac 	nbDuplicates 	0
scalar DataCentricNet.host[13].nic.mac 	meanBackoff 	0.00128
scalar DataCentricNet.host[13].nic.mac 	nbBackoffs 	3
scalar DataCentricNet.host[13].nic.mac 	backoffDurations 	0.00384
scalar DataCentricNet.host[13].nic.phy 	lossRate:min 	-1.#IND
attr interpolationmode  backward-sample-hold
attr title  "packet loss rate, min"
scalar DataCentricNet.host[13].nic.phy 	lossRate:max 	-1.#IND
attr interpolationmode  backward-sample-hold
attr title  "packet loss rate, max"
scalar DataCentricNet.host[13].nic.phy 	lossRate:timeavg 	-1.#IND
attr interpolationmode  backward-sample-hold
attr title  "packet loss rate, timeavg"
scalar DataCentricNet.host[13].nic.phy 	radioState:count 	77
attr interpolationmode  sample-hold
attr title  "radio state (enum), count"
statistic DataCentricNet.host[13].nic.phy 	channelNo:histogram
field count 1
field mean 11
field stddev -1.#IND
field sum 11
field sqrsum 121
field min 11
field max 11
attr interpolationmode  sample-hold
attr title  "channel no, histogram"
bin	-INF	0
bin	10	0
bin	11	1
bin	12	0
scalar DataCentricNet.host[13].nic.phy 	bitrate:min 	250000
attr interpolationmode  sample-hold
attr title  "tx bitrate, min"
attr unit  bps
scalar DataCentricNet.host[13].nic.phy 	bitrate:max 	250000
attr interpolationmode  sample-hold
attr title  "tx bitrate, max"
attr unit  bps
scalar DataCentricNet.host[13].nic.phy 	bitrate:timeavg 	250000
attr interpolationmode  sample-hold
attr title  "tx bitrate, timeavg"
attr unit  bps
scalar DataCentricNet.host[14].app 	trafficSent 	0
scalar DataCentricNet.host[14].app 	"total bytes received" 	0
scalar DataCentricNet.host[14].net 	NumberOfNeighbours 	8
scalar DataCentricNet.host[14].net 	"num of pkts forwarded" 	0
scalar DataCentricNet.host[14].nic.ifq 	queueLength:max 	0
attr interpolationmode  sample-hold
attr title  "queue length, max"
scalar DataCentricNet.host[14].nic.ifq 	queueLength:timeavg 	0
attr interpolationmode  sample-hold
attr title  "queue length, timeavg"
statistic DataCentricNet.host[14].nic.ifq 	queueingTime:histogram
field count 2
field mean 0
field stddev 0
field sum 0
field sqrsum 0
field min 0
field max 0
attr interpolationmode  none
attr title  "queueing time, histogram"
bin	-INF	0
bin	-0.5	0
bin	-0.46666666666667	0
bin	-0.43333333333333	0
bin	-0.4	0
bin	-0.36666666666667	0
bin	-0.33333333333333	0
bin	-0.3	0
bin	-0.26666666666667	0
bin	-0.23333333333333	0
bin	-0.2	0
bin	-0.16666666666667	0
bin	-0.13333333333333	0
bin	-0.1	0
bin	-0.066666666666667	0
bin	-0.033333333333333	0
bin	-6.9388939039072e-018	2
bin	0.033333333333333	0
bin	0.066666666666667	0
bin	0.1	0
bin	0.13333333333333	0
bin	0.16666666666667	0
bin	0.2	0
bin	0.23333333333333	0
bin	0.26666666666667	0
bin	0.3	0
bin	0.33333333333333	0
bin	0.36666666666667	0
bin	0.4	0
bin	0.43333333333333	0
bin	0.46666666666667	0
bin	0.5	0
scalar DataCentricNet.host[14].nic.ifq 	dropPk:count 	0
attr interpolationmode  none
attr source  dropPkByQueue
attr title  "dropped packets, count"
scalar DataCentricNet.host[14].nic.ifq 	dropPk:sum(packetBytes) 	0
attr interpolationmode  none
attr source  dropPkByQueue
attr title  "dropped packets, sum(packetBytes)"
scalar DataCentricNet.host[14].nic.mac 	nbTxFrames 	2
scalar DataCentricNet.host[14].nic.mac 	nbRxFrames 	0
scalar DataCentricNet.host[14].nic.mac 	nbDroppedFrames 	0
scalar DataCentricNet.host[14].nic.mac 	nbMissedAcks 	0
scalar DataCentricNet.host[14].nic.mac 	nbRecvdAcks 	0
scalar DataCentricNet.host[14].nic.mac 	nbTxAcks 	0
scalar DataCentricNet.host[14].nic.mac 	nbDuplicates 	0
scalar DataCentricNet.host[14].nic.mac 	meanBackoff 	0.0016
scalar DataCentricNet.host[14].nic.mac 	nbBackoffs 	2
scalar DataCentricNet.host[14].nic.mac 	backoffDurations 	0.0032
scalar DataCentricNet.host[14].nic.phy 	lossRate:min 	-1.#IND
attr interpolationmode  backward-sample-hold
attr title  "packet loss rate, min"
scalar DataCentricNet.host[14].nic.phy 	lossRate:max 	-1.#IND
attr interpolationmode  backward-sample-hold
attr title  "packet loss rate, max"
scalar DataCentricNet.host[14].nic.phy 	lossRate:timeavg 	-1.#IND
attr interpolationmode  backward-sample-hold
attr title  "packet loss rate, timeavg"
scalar DataCentricNet.host[14].nic.phy 	radioState:count 	74
attr interpolationmode  sample-hold
attr title  "radio state (enum), count"
statistic DataCentricNet.host[14].nic.phy 	channelNo:histogram
field count 1
field mean 11
field stddev -1.#IND
field sum 11
field sqrsum 121
field min 11
field max 11
attr interpolationmode  sample-hold
attr title  "channel no, histogram"
bin	-INF	0
bin	10	0
bin	11	1
bin	12	0
scalar DataCentricNet.host[14].nic.phy 	bitrate:min 	250000
attr interpolationmode  sample-hold
attr title  "tx bitrate, min"
attr unit  bps
scalar DataCentricNet.host[14].nic.phy 	bitrate:max 	250000
attr interpolationmode  sample-hold
attr title  "tx bitrate, max"
attr unit  bps
scalar DataCentricNet.host[14].nic.phy 	bitrate:timeavg 	250000
attr interpolationmode  sample-hold
attr title  "tx bitrate, timeavg"
attr unit  bps
scalar DataCentricNet.host[15].app 	trafficSent 	0
scalar DataCentricNet.host[15].app 	"total bytes received" 	0
scalar DataCentricNet.host[15].net 	NumberOfNeighbours 	6
scalar DataCentricNet.host[15].net 	"num of pkts forwarded" 	0
scalar DataCentricNet.host[15].nic.ifq 	queueLength:max 	0
attr interpolationmode  sample-hold
attr title  "queue length, max"
scalar DataCentricNet.host[15].nic.ifq 	queueLength:timeavg 	0
attr interpolationmode  sample-hold
attr title  "queue length, timeavg"
statistic DataCentricNet.host[15].nic.ifq 	queueingTime:histogram
field count 2
field mean 0
field stddev 0
field sum 0
field sqrsum 0
field min 0
field max 0
attr interpolationmode  none
attr title  "queueing time, histogram"
bin	-INF	0
bin	-0.5	0
bin	-0.46666666666667	0
bin	-0.43333333333333	0
bin	-0.4	0
bin	-0.36666666666667	0
bin	-0.33333333333333	0
bin	-0.3	0
bin	-0.26666666666667	0
bin	-0.23333333333333	0
bin	-0.2	0
bin	-0.16666666666667	0
bin	-0.13333333333333	0
bin	-0.1	0
bin	-0.066666666666667	0
bin	-0.033333333333333	0
bin	-6.9388939039072e-018	2
bin	0.033333333333333	0
bin	0.066666666666667	0
bin	0.1	0
bin	0.13333333333333	0
bin	0.16666666666667	0
bin	0.2	0
bin	0.23333333333333	0
bin	0.26666666666667	0
bin	0.3	0
bin	0.33333333333333	0
bin	0.36666666666667	0
bin	0.4	0
bin	0.43333333333333	0
bin	0.46666666666667	0
bin	0.5	0
scalar DataCentricNet.host[15].nic.ifq 	dropPk:count 	0
attr interpolationmode  none
attr source  dropPkByQueue
attr title  "dropped packets, count"
scalar DataCentricNet.host[15].nic.ifq 	dropPk:sum(packetBytes) 	0
attr interpolationmode  none
attr source  dropPkByQueue
attr title  "dropped packets, sum(packetBytes)"
scalar DataCentricNet.host[15].nic.mac 	nbTxFrames 	2
scalar DataCentricNet.host[15].nic.mac 	nbRxFrames 	0
scalar DataCentricNet.host[15].nic.mac 	nbDroppedFrames 	0
scalar DataCentricNet.host[15].nic.mac 	nbMissedAcks 	0
scalar DataCentricNet.host[15].nic.mac 	nbRecvdAcks 	0
scalar DataCentricNet.host[15].nic.mac 	nbTxAcks 	0
scalar DataCentricNet.host[15].nic.mac 	nbDuplicates 	0
scalar DataCentricNet.host[15].nic.mac 	meanBackoff 	0.0017066666666667
scalar DataCentricNet.host[15].nic.mac 	nbBackoffs 	3
scalar DataCentricNet.host[15].nic.mac 	backoffDurations 	0.00512
scalar DataCentricNet.host[15].nic.phy 	lossRate:min 	-1.#IND
attr interpolationmode  backward-sample-hold
attr title  "packet loss rate, min"
scalar DataCentricNet.host[15].nic.phy 	lossRate:max 	-1.#IND
attr interpolationmode  backward-sample-hold
attr title  "packet loss rate, max"
scalar DataCentricNet.host[15].nic.phy 	lossRate:timeavg 	-1.#IND
attr interpolationmode  backward-sample-hold
attr title  "packet loss rate, timeavg"
scalar DataCentricNet.host[15].nic.phy 	radioState:count 	85
attr interpolationmode  sample-hold
attr title  "radio state (enum), count"
statistic DataCentricNet.host[15].nic.phy 	channelNo:histogram
field count 1
field mean 11
field stddev -1.#IND
field sum 11
field sqrsum 121
field min 11
field max 11
attr interpolationmode  sample-hold
attr title  "channel no, histogram"
bin	-INF	0
bin	10	0
bin	11	1
bin	12	0
scalar DataCentricNet.host[15].nic.phy 	bitrate:min 	250000
attr interpolationmode  sample-hold
attr title  "tx bitrate, min"
attr unit  bps
scalar DataCentricNet.host[15].nic.phy 	bitrate:max 	250000
attr interpolationmode  sample-hold
attr title  "tx bitrate, max"
attr unit  bps
scalar DataCentricNet.host[15].nic.phy 	bitrate:timeavg 	250000
attr interpolationmode  sample-hold
attr title  "tx bitrate, timeavg"
attr unit  bps
scalar DataCentricNet.host[16].app 	trafficSent 	0
scalar DataCentricNet.host[16].app 	"total bytes received" 	0
scalar DataCentricNet.host[16].net 	NumberOfNeighbours 	7
scalar DataCentricNet.host[16].net 	"num of pkts forwarded" 	0
scalar DataCentricNet.host[16].nic.ifq 	queueLength:max 	0
attr interpolationmode  sample-hold
attr title  "queue length, max"
scalar DataCentricNet.host[16].nic.ifq 	queueLength:timeavg 	0
attr interpolationmode  sample-hold
attr title  "queue length, timeavg"
statistic DataCentricNet.host[16].nic.ifq 	queueingTime:histogram
field count 5
field mean 0
field stddev 0
field sum 0
field sqrsum 0
field min 0
field max 0
attr interpolationmode  none
attr title  "queueing time, histogram"
bin	-INF	0
bin	-0.5	0
bin	-0.46666666666667	0
bin	-0.43333333333333	0
bin	-0.4	0
bin	-0.36666666666667	0
bin	-0.33333333333333	0
bin	-0.3	0
bin	-0.26666666666667	0
bin	-0.23333333333333	0
bin	-0.2	0
bin	-0.16666666666667	0
bin	-0.13333333333333	0
bin	-0.1	0
bin	-0.066666666666667	0
bin	-0.033333333333333	0
bin	-6.9388939039072e-018	5
bin	0.033333333333333	0
bin	0.066666666666667	0
bin	0.1	0
bin	0.13333333333333	0
bin	0.16666666666667	0
bin	0.2	0
bin	0.23333333333333	0
bin	0.26666666666667	0
bin	0.3	0
bin	0.33333333333333	0
bin	0.36666666666667	0
bin	0.4	0
bin	0.43333333333333	0
bin	0.46666666666667	0
bin	0.5	0
scalar DataCentricNet.host[16].nic.ifq 	dropPk:count 	0
attr interpolationmode  none
attr source  dropPkByQueue
attr title  "dropped packets, count"
scalar DataCentricNet.host[16].nic.ifq 	dropPk:sum(packetBytes) 	0
attr interpolationmode  none
attr source  dropPkByQueue
attr title  "dropped packets, sum(packetBytes)"
scalar DataCentricNet.host[16].nic.mac 	nbTxFrames 	5
scalar DataCentricNet.host[16].nic.mac 	nbRxFrames 	0
scalar DataCentricNet.host[16].nic.mac 	nbDroppedFrames 	0
scalar DataCentricNet.host[16].nic.mac 	nbMissedAcks 	0
scalar DataCentricNet.host[16].nic.mac 	nbRecvdAcks 	0
scalar DataCentricNet.host[16].nic.mac 	nbTxAcks 	0
scalar DataCentricNet.host[16].nic.mac 	nbDuplicates 	0
scalar DataCentricNet.host[16].nic.mac 	meanBackoff 	0.0015466666666667
scalar DataCentricNet.host[16].nic.mac 	nbBackoffs 	6
scalar DataCentricNet.host[16].nic.mac 	backoffDurations 	0.00928
scalar DataCentricNet.host[16].nic.phy 	lossRate:min 	-1.#IND
attr interpolationmode  backward-sample-hold
attr title  "packet loss rate, min"
scalar DataCentricNet.host[16].nic.phy 	lossRate:max 	-1.#IND
attr interpolationmode  backward-sample-hold
attr title  "packet loss rate, max"
scalar DataCentricNet.host[16].nic.phy 	lossRate:timeavg 	-1.#IND
attr interpolationmode  backward-sample-hold
attr title  "packet loss rate, timeavg"
scalar DataCentricNet.host[16].nic.phy 	radioState:count 	99
attr interpolationmode  sample-hold
attr title  "radio state (enum), count"
statistic DataCentricNet.host[16].nic.phy 	channelNo:histogram
field count 1
field mean 11
field stddev -1.#IND
field sum 11
field sqrsum 121
field min 11
field max 11
attr interpolationmode  sample-hold
attr title  "channel no, histogram"
bin	-INF	0
bin	10	0
bin	11	1
bin	12	0
scalar DataCentricNet.host[16].nic.phy 	bitrate:min 	250000
attr interpolationmode  sample-hold
attr title  "tx bitrate, min"
attr unit  bps
scalar DataCentricNet.host[16].nic.phy 	bitrate:max 	250000
attr interpolationmode  sample-hold
attr title  "tx bitrate, max"
attr unit  bps
scalar DataCentricNet.host[16].nic.phy 	bitrate:timeavg 	250000
attr interpolationmode  sample-hold
attr title  "tx bitrate, timeavg"
attr unit  bps
scalar DataCentricNet.host[17].app 	trafficSent 	0
scalar DataCentricNet.host[17].app 	"total bytes received" 	0
scalar DataCentricNet.host[17].net 	NumberOfNeighbours 	8
scalar DataCentricNet.host[17].net 	"num of pkts forwarded" 	0
scalar DataCentricNet.host[17].nic.ifq 	queueLength:max 	0
attr interpolationmode  sample-hold
attr title  "queue length, max"
scalar DataCentricNet.host[17].nic.ifq 	queueLength:timeavg 	0
attr interpolationmode  sample-hold
attr title  "queue length, timeavg"
statistic DataCentricNet.host[17].nic.ifq 	queueingTime:histogram
field count 6
field mean 0
field stddev 0
field sum 0
field sqrsum 0
field min 0
field max 0
attr interpolationmode  none
attr title  "queueing time, histogram"
bin	-INF	0
bin	-0.5	0
bin	-0.46666666666667	0
bin	-0.43333333333333	0
bin	-0.4	0
bin	-0.36666666666667	0
bin	-0.33333333333333	0
bin	-0.3	0
bin	-0.26666666666667	0
bin	-0.23333333333333	0
bin	-0.2	0
bin	-0.16666666666667	0
bin	-0.13333333333333	0
bin	-0.1	0
bin	-0.066666666666667	0
bin	-0.033333333333333	0
bin	-6.9388939039072e-018	6
bin	0.033333333333333	0
bin	0.066666666666667	0
bin	0.1	0
bin	0.13333333333333	0
bin	0.16666666666667	0
bin	0.2	0
bin	0.23333333333333	0
bin	0.26666666666667	0
bin	0.3	0
bin	0.33333333333333	0
bin	0.36666666666667	0
bin	0.4	0
bin	0.43333333333333	0
bin	0.46666666666667	0
bin	0.5	0
scalar DataCentricNet.host[17].nic.ifq 	dropPk:count 	0
attr interpolationmode  none
attr source  dropPkByQueue
attr title  "dropped packets, count"
scalar DataCentricNet.host[17].nic.ifq 	dropPk:sum(packetBytes) 	0
attr interpolationmode  none
attr source  dropPkByQueue
attr title  "dropped packets, sum(packetBytes)"
scalar DataCentricNet.host[17].nic.mac 	nbTxFrames 	6
scalar DataCentricNet.host[17].nic.mac 	nbRxFrames 	0
scalar DataCentricNet.host[17].nic.mac 	nbDroppedFrames 	0
scalar DataCentricNet.host[17].nic.mac 	nbMissedAcks 	0
scalar DataCentricNet.host[17].nic.mac 	nbRecvdAcks 	0
scalar DataCentricNet.host[17].nic.mac 	nbTxAcks 	0
scalar DataCentricNet.host[17].nic.mac 	nbDuplicates 	0
scalar DataCentricNet.host[17].nic.mac 	meanBackoff 	0.0020571428571429
scalar DataCentricNet.host[17].nic.mac 	nbBackoffs 	7
scalar DataCentricNet.host[17].nic.mac 	backoffDurations 	0.0144
scalar DataCentricNet.host[17].nic.phy 	lossRate:min 	-1.#IND
attr interpolationmode  backward-sample-hold
attr title  "packet loss rate, min"
scalar DataCentricNet.host[17].nic.phy 	lossRate:max 	-1.#IND
attr interpolationmode  backward-sample-hold
attr title  "packet loss rate, max"
scalar DataCentricNet.host[17].nic.phy 	lossRate:timeavg 	-1.#IND
attr interpolationmode  backward-sample-hold
attr title  "packet loss rate, timeavg"
scalar DataCentricNet.host[17].nic.phy 	radioState:count 	91
attr interpolationmode  sample-hold
attr title  "radio state (enum), count"
statistic DataCentricNet.host[17].nic.phy 	channelNo:histogram
field count 1
field mean 11
field stddev -1.#IND
field sum 11
field sqrsum 121
field min 11
field max 11
attr interpolationmode  sample-hold
attr title  "channel no, histogram"
bin	-INF	0
bin	10	0
bin	11	1
bin	12	0
scalar DataCentricNet.host[17].nic.phy 	bitrate:min 	250000
attr interpolationmode  sample-hold
attr title  "tx bitrate, min"
attr unit  bps
scalar DataCentricNet.host[17].nic.phy 	bitrate:max 	250000
attr interpolationmode  sample-hold
attr title  "tx bitrate, max"
attr unit  bps
scalar DataCentricNet.host[17].nic.phy 	bitrate:timeavg 	250000
attr interpolationmode  sample-hold
attr title  "tx bitrate, timeavg"
attr unit  bps
scalar DataCentricNet.host[18].app 	trafficSent 	0
scalar DataCentricNet.host[18].app 	"total bytes received" 	0
scalar DataCentricNet.host[18].net 	NumberOfNeighbours 	8
scalar DataCentricNet.host[18].net 	"num of pkts forwarded" 	0
scalar DataCentricNet.host[18].nic.ifq 	queueLength:max 	0
attr interpolationmode  sample-hold
attr title  "queue length, max"
scalar DataCentricNet.host[18].nic.ifq 	queueLength:timeavg 	0
attr interpolationmode  sample-hold
attr title  "queue length, timeavg"
statistic DataCentricNet.host[18].nic.ifq 	queueingTime:histogram
field count 2
field mean 0
field stddev 0
field sum 0
field sqrsum 0
field min 0
field max 0
attr interpolationmode  none
attr title  "queueing time, histogram"
bin	-INF	0
bin	-0.5	0
bin	-0.46666666666667	0
bin	-0.43333333333333	0
bin	-0.4	0
bin	-0.36666666666667	0
bin	-0.33333333333333	0
bin	-0.3	0
bin	-0.26666666666667	0
bin	-0.23333333333333	0
bin	-0.2	0
bin	-0.16666666666667	0
bin	-0.13333333333333	0
bin	-0.1	0
bin	-0.066666666666667	0
bin	-0.033333333333333	0
bin	-6.9388939039072e-018	2
bin	0.033333333333333	0
bin	0.066666666666667	0
bin	0.1	0
bin	0.13333333333333	0
bin	0.16666666666667	0
bin	0.2	0
bin	0.23333333333333	0
bin	0.26666666666667	0
bin	0.3	0
bin	0.33333333333333	0
bin	0.36666666666667	0
bin	0.4	0
bin	0.43333333333333	0
bin	0.46666666666667	0
bin	0.5	0
scalar DataCentricNet.host[18].nic.ifq 	dropPk:count 	0
attr interpolationmode  none
attr source  dropPkByQueue
attr title  "dropped packets, count"
scalar DataCentricNet.host[18].nic.ifq 	dropPk:sum(packetBytes) 	0
attr interpolationmode  none
attr source  dropPkByQueue
attr title  "dropped packets, sum(packetBytes)"
scalar DataCentricNet.host[18].nic.mac 	nbTxFrames 	2
scalar DataCentricNet.host[18].nic.mac 	nbRxFrames 	0
scalar DataCentricNet.host[18].nic.mac 	nbDroppedFrames 	0
scalar DataCentricNet.host[18].nic.mac 	nbMissedAcks 	0
scalar DataCentricNet.host[18].nic.mac 	nbRecvdAcks 	0
scalar DataCentricNet.host[18].nic.mac 	nbTxAcks 	0
scalar DataCentricNet.host[18].nic.mac 	nbDuplicates 	0
scalar DataCentricNet.host[18].nic.mac 	meanBackoff 	0.0017066666666667
scalar DataCentricNet.host[18].nic.mac 	nbBackoffs 	3
scalar DataCentricNet.host[18].nic.mac 	backoffDurations 	0.00512
scalar DataCentricNet.host[18].nic.phy 	lossRate:min 	-1.#IND
attr interpolationmode  backward-sample-hold
attr title  "packet loss rate, min"
scalar DataCentricNet.host[18].nic.phy 	lossRate:max 	-1.#IND
attr interpolationmode  backward-sample-hold
attr title  "packet loss rate, max"
scalar DataCentricNet.host[18].nic.phy 	lossRate:timeavg 	-1.#IND
attr interpolationmode  backward-sample-hold
attr title  "packet loss rate, timeavg"
scalar DataCentricNet.host[18].nic.phy 	radioState:count 	69
attr interpolationmode  sample-hold
attr title  "radio state (enum), count"
statistic DataCentricNet.host[18].nic.phy 	channelNo:histogram
field count 1
field mean 11
field stddev -1.#IND
field sum 11
field sqrsum 121
field min 11
field max 11
attr interpolationmode  sample-hold
attr title  "channel no, histogram"
bin	-INF	0
bin	10	0
bin	11	1
bin	12	0
scalar DataCentricNet.host[18].nic.phy 	bitrate:min 	250000
attr interpolationmode  sample-hold
attr title  "tx bitrate, min"
attr unit  bps
scalar DataCentricNet.host[18].nic.phy 	bitrate:max 	250000
attr interpolationmode  sample-hold
attr title  "tx bitrate, max"
attr unit  bps
scalar DataCentricNet.host[18].nic.phy 	bitrate:timeavg 	250000
attr interpolationmode  sample-hold
attr title  "tx bitrate, timeavg"
attr unit  bps
scalar DataCentricNet.host[19].app 	trafficSent 	0
scalar DataCentricNet.host[19].app 	"total bytes received" 	0
scalar DataCentricNet.host[19].net 	NumberOfNeighbours 	5
scalar DataCentricNet.host[19].net 	"num of pkts forwarded" 	0
scalar DataCentricNet.host[19].nic.ifq 	queueLength:max 	0
attr interpolationmode  sample-hold
attr title  "queue length, max"
scalar DataCentricNet.host[19].nic.ifq 	queueLength:timeavg 	0
attr interpolationmode  sample-hold
attr title  "queue length, timeavg"
statistic DataCentricNet.host[19].nic.ifq 	queueingTime:histogram
field count 3
field mean 0
field stddev 0
field sum 0
field sqrsum 0
field min 0
field max 0
attr interpolationmode  none
attr title  "queueing time, histogram"
bin	-INF	0
bin	-0.5	0
bin	-0.46666666666667	0
bin	-0.43333333333333	0
bin	-0.4	0
bin	-0.36666666666667	0
bin	-0.33333333333333	0
bin	-0.3	0
bin	-0.26666666666667	0
bin	-0.23333333333333	0
bin	-0.2	0
bin	-0.16666666666667	0
bin	-0.13333333333333	0
bin	-0.1	0
bin	-0.066666666666667	0
bin	-0.033333333333333	0
bin	-6.9388939039072e-018	3
bin	0.033333333333333	0
bin	0.066666666666667	0
bin	0.1	0
bin	0.13333333333333	0
bin	0.16666666666667	0
bin	0.2	0
bin	0.23333333333333	0
bin	0.26666666666667	0
bin	0.3	0
bin	0.33333333333333	0
bin	0.36666666666667	0
bin	0.4	0
bin	0.43333333333333	0
bin	0.46666666666667	0
bin	0.5	0
scalar DataCentricNet.host[19].nic.ifq 	dropPk:count 	0
attr interpolationmode  none
attr source  dropPkByQueue
attr title  "dropped packets, count"
scalar DataCentricNet.host[19].nic.ifq 	dropPk:sum(packetBytes) 	0
attr interpolationmode  none
attr source  dropPkByQueue
attr title  "dropped packets, sum(packetBytes)"
scalar DataCentricNet.host[19].nic.mac 	nbTxFrames 	3
scalar DataCentricNet.host[19].nic.mac 	nbRxFrames 	0
scalar DataCentricNet.host[19].nic.mac 	nbDroppedFrames 	0
scalar DataCentricNet.host[19].nic.mac 	nbMissedAcks 	0
scalar DataCentricNet.host[19].nic.mac 	nbRecvdAcks 	0
scalar DataCentricNet.host[19].nic.mac 	nbTxAcks 	0
scalar DataCentricNet.host[19].nic.mac 	nbDuplicates 	0
scalar DataCentricNet.host[19].nic.mac 	meanBackoff 	0.00128
scalar DataCentricNet.host[19].nic.mac 	nbBackoffs 	4
scalar DataCentricNet.host[19].nic.mac 	backoffDurations 	0.00512
scalar DataCentricNet.host[19].nic.phy 	lossRate:min 	-1.#IND
attr interpolationmode  backward-sample-hold
attr title  "packet loss rate, min"
scalar DataCentricNet.host[19].nic.phy 	lossRate:max 	-1.#IND
attr interpolationmode  backward-sample-hold
attr title  "packet loss rate, max"
scalar DataCentricNet.host[19].nic.phy 	lossRate:timeavg 	-1.#IND
attr interpolationmode  backward-sample-hold
attr title  "packet loss rate, timeavg"
scalar DataCentricNet.host[19].nic.phy 	radioState:count 	58
attr interpolationmode  sample-hold
attr title  "radio state (enum), count"
statistic DataCentricNet.host[19].nic.phy 	channelNo:histogram
field count 1
field mean 11
field stddev -1.#IND
field sum 11
field sqrsum 121
field min 11
field max 11
attr interpolationmode  sample-hold
attr title  "channel no, histogram"
bin	-INF	0
bin	10	0
bin	11	1
bin	12	0
scalar DataCentricNet.host[19].nic.phy 	bitrate:min 	250000
attr interpolationmode  sample-hold
attr title  "tx bitrate, min"
attr unit  bps
scalar DataCentricNet.host[19].nic.phy 	bitrate:max 	250000
attr interpolationmode  sample-hold
attr title  "tx bitrate, max"
attr unit  bps
scalar DataCentricNet.host[19].nic.phy 	bitrate:timeavg 	250000
attr interpolationmode  sample-hold
attr title  "tx bitrate, timeavg"
attr unit  bps
scalar DataCentricNet.host[20].app 	trafficSent 	0
scalar DataCentricNet.host[20].app 	"total bytes received" 	0
scalar DataCentricNet.host[20].net 	NumberOfNeighbours 	6
scalar DataCentricNet.host[20].net 	"num of pkts forwarded" 	0
scalar DataCentricNet.host[20].nic.ifq 	queueLength:max 	0
attr interpolationmode  sample-hold
attr title  "queue length, max"
scalar DataCentricNet.host[20].nic.ifq 	queueLength:timeavg 	0
attr interpolationmode  sample-hold
attr title  "queue length, timeavg"
statistic DataCentricNet.host[20].nic.ifq 	queueingTime:histogram
field count 5
field mean 0
field stddev 0
field sum 0
field sqrsum 0
field min 0
field max 0
attr interpolationmode  none
attr title  "queueing time, histogram"
bin	-INF	0
bin	-0.5	0
bin	-0.46666666666667	0
bin	-0.43333333333333	0
bin	-0.4	0
bin	-0.36666666666667	0
bin	-0.33333333333333	0
bin	-0.3	0
bin	-0.26666666666667	0
bin	-0.23333333333333	0
bin	-0.2	0
bin	-0.16666666666667	0
bin	-0.13333333333333	0
bin	-0.1	0
bin	-0.066666666666667	0
bin	-0.033333333333333	0
bin	-6.9388939039072e-018	5
bin	0.033333333333333	0
bin	0.066666666666667	0
bin	0.1	0
bin	0.13333333333333	0
bin	0.16666666666667	0
bin	0.2	0
bin	0.23333333333333	0
bin	0.26666666666667	0
bin	0.3	0
bin	0.33333333333333	0
bin	0.36666666666667	0
bin	0.4	0
bin	0.43333333333333	0
bin	0.46666666666667	0
bin	0.5	0
scalar DataCentricNet.host[20].nic.ifq 	dropPk:count 	0
attr interpolationmode  none
attr source  dropPkByQueue
attr title  "dropped packets, count"
scalar DataCentricNet.host[20].nic.ifq 	dropPk:sum(packetBytes) 	0
attr interpolationmode  none
attr source  dropPkByQueue
attr title  "dropped packets, sum(packetBytes)"
scalar DataCentricNet.host[20].nic.mac 	nbTxFrames 	6
scalar DataCentricNet.host[20].nic.mac 	nbRxFrames 	0
scalar DataCentricNet.host[20].nic.mac 	nbDroppedFrames 	0
scalar DataCentricNet.host[20].nic.mac 	nbMissedAcks 	1
scalar DataCentricNet.host[20].nic.mac 	nbRecvdAcks 	3
scalar DataCentricNet.host[20].nic.mac 	nbTxAcks 	0
scalar DataCentricNet.host[20].nic.mac 	nbDuplicates 	0
scalar DataCentricNet.host[20].nic.mac 	meanBackoff 	0.00192
scalar DataCentricNet.host[20].nic.mac 	nbBackoffs 	7
scalar DataCentricNet.host[20].nic.mac 	backoffDurations 	0.01344
scalar DataCentricNet.host[20].nic.phy 	lossRate:min 	-1.#IND
attr interpolationmode  backward-sample-hold
attr title  "packet loss rate, min"
scalar DataCentricNet.host[20].nic.phy 	lossRate:max 	-1.#IND
attr interpolationmode  backward-sample-hold
attr title  "packet loss rate, max"
scalar DataCentricNet.host[20].nic.phy 	lossRate:timeavg 	-1.#IND
attr interpolationmode  backward-sample-hold
attr title  "packet loss rate, timeavg"
scalar DataCentricNet.host[20].nic.phy 	radioState:count 	81
attr interpolationmode  sample-hold
attr title  "radio state (enum), count"
statistic DataCentricNet.host[20].nic.phy 	channelNo:histogram
field count 1
field mean 11
field stddev -1.#IND
field sum 11
field sqrsum 121
field min 11
field max 11
attr interpolationmode  sample-hold
attr title  "channel no, histogram"
bin	-INF	0
bin	10	0
bin	11	1
bin	12	0
scalar DataCentricNet.host[20].nic.phy 	bitrate:min 	250000
attr interpolationmode  sample-hold
attr title  "tx bitrate, min"
attr unit  bps
scalar DataCentricNet.host[20].nic.phy 	bitrate:max 	250000
attr interpolationmode  sample-hold
attr title  "tx bitrate, max"
attr unit  bps
scalar DataCentricNet.host[20].nic.phy 	bitrate:timeavg 	250000
attr interpolationmode  sample-hold
attr title  "tx bitrate, timeavg"
attr unit  bps
scalar DataCentricNet.host[21].app 	trafficSent 	0
scalar DataCentricNet.host[21].app 	"total bytes received" 	0
scalar DataCentricNet.host[21].net 	NumberOfNeighbours 	6
scalar DataCentricNet.host[21].net 	"num of pkts forwarded" 	0
scalar DataCentricNet.host[21].nic.ifq 	queueLength:max 	0
attr interpolationmode  sample-hold
attr title  "queue length, max"
scalar DataCentricNet.host[21].nic.ifq 	queueLength:timeavg 	0
attr interpolationmode  sample-hold
attr title  "queue length, timeavg"
statistic DataCentricNet.host[21].nic.ifq 	queueingTime:histogram
field count 2
field mean 0
field stddev 0
field sum 0
field sqrsum 0
field min 0
field max 0
attr interpolationmode  none
attr title  "queueing time, histogram"
bin	-INF	0
bin	-0.5	0
bin	-0.46666666666667	0
bin	-0.43333333333333	0
bin	-0.4	0
bin	-0.36666666666667	0
bin	-0.33333333333333	0
bin	-0.3	0
bin	-0.26666666666667	0
bin	-0.23333333333333	0
bin	-0.2	0
bin	-0.16666666666667	0
bin	-0.13333333333333	0
bin	-0.1	0
bin	-0.066666666666667	0
bin	-0.033333333333333	0
bin	-6.9388939039072e-018	2
bin	0.033333333333333	0
bin	0.066666666666667	0
bin	0.1	0
bin	0.13333333333333	0
bin	0.16666666666667	0
bin	0.2	0
bin	0.23333333333333	0
bin	0.26666666666667	0
bin	0.3	0
bin	0.33333333333333	0
bin	0.36666666666667	0
bin	0.4	0
bin	0.43333333333333	0
bin	0.46666666666667	0
bin	0.5	0
scalar DataCentricNet.host[21].nic.ifq 	dropPk:count 	0
attr interpolationmode  none
attr source  dropPkByQueue
attr title  "dropped packets, count"
scalar DataCentricNet.host[21].nic.ifq 	dropPk:sum(packetBytes) 	0
attr interpolationmode  none
attr source  dropPkByQueue
attr title  "dropped packets, sum(packetBytes)"
scalar DataCentricNet.host[21].nic.mac 	nbTxFrames 	2
scalar DataCentricNet.host[21].nic.mac 	nbRxFrames 	1
scalar DataCentricNet.host[21].nic.mac 	nbDroppedFrames 	0
scalar DataCentricNet.host[21].nic.mac 	nbMissedAcks 	0
scalar DataCentricNet.host[21].nic.mac 	nbRecvdAcks 	0
scalar DataCentricNet.host[21].nic.mac 	nbTxAcks 	1
scalar DataCentricNet.host[21].nic.mac 	nbDuplicates 	0
scalar DataCentricNet.host[21].nic.mac 	meanBackoff 	0.00048
scalar DataCentricNet.host[21].nic.mac 	nbBackoffs 	2
scalar DataCentricNet.host[21].nic.mac 	backoffDurations 	0.00096
scalar DataCentricNet.host[21].nic.phy 	lossRate:min 	-1.#IND
attr interpolationmode  backward-sample-hold
attr title  "packet loss rate, min"
scalar DataCentricNet.host[21].nic.phy 	lossRate:max 	-1.#IND
attr interpolationmode  backward-sample-hold
attr title  "packet loss rate, max"
scalar DataCentricNet.host[21].nic.phy 	lossRate:timeavg 	-1.#IND
attr interpolationmode  backward-sample-hold
attr title  "packet loss rate, timeavg"
scalar DataCentricNet.host[21].nic.phy 	radioState:count 	88
attr interpolationmode  sample-hold
attr title  "radio state (enum), count"
statistic DataCentricNet.host[21].nic.phy 	channelNo:histogram
field count 1
field mean 11
field stddev -1.#IND
field sum 11
field sqrsum 121
field min 11
field max 11
attr interpolationmode  sample-hold
attr title  "channel no, histogram"
bin	-INF	0
bin	10	0
bin	11	1
bin	12	0
scalar DataCentricNet.host[21].nic.phy 	bitrate:min 	250000
attr interpolationmode  sample-hold
attr title  "tx bitrate, min"
attr unit  bps
scalar DataCentricNet.host[21].nic.phy 	bitrate:max 	250000
attr interpolationmode  sample-hold
attr title  "tx bitrate, max"
attr unit  bps
scalar DataCentricNet.host[21].nic.phy 	bitrate:timeavg 	250000
attr interpolationmode  sample-hold
attr title  "tx bitrate, timeavg"
attr unit  bps
scalar DataCentricNet.host[22].app 	trafficSent 	0
scalar DataCentricNet.host[22].app 	"total bytes received" 	0
scalar DataCentricNet.host[22].net 	NumberOfNeighbours 	4
scalar DataCentricNet.host[22].net 	"num of pkts forwarded" 	0
scalar DataCentricNet.host[22].nic.ifq 	queueLength:max 	0
attr interpolationmode  sample-hold
attr title  "queue length, max"
scalar DataCentricNet.host[22].nic.ifq 	queueLength:timeavg 	0
attr interpolationmode  sample-hold
attr title  "queue length, timeavg"
statistic DataCentricNet.host[22].nic.ifq 	queueingTime:histogram
field count 3
field mean 0
field stddev 0
field sum 0
field sqrsum 0
field min 0
field max 0
attr interpolationmode  none
attr title  "queueing time, histogram"
bin	-INF	0
bin	-0.5	0
bin	-0.46666666666667	0
bin	-0.43333333333333	0
bin	-0.4	0
bin	-0.36666666666667	0
bin	-0.33333333333333	0
bin	-0.3	0
bin	-0.26666666666667	0
bin	-0.23333333333333	0
bin	-0.2	0
bin	-0.16666666666667	0
bin	-0.13333333333333	0
bin	-0.1	0
bin	-0.066666666666667	0
bin	-0.033333333333333	0
bin	-6.9388939039072e-018	3
bin	0.033333333333333	0
bin	0.066666666666667	0
bin	0.1	0
bin	0.13333333333333	0
bin	0.16666666666667	0
bin	0.2	0
bin	0.23333333333333	0
bin	0.26666666666667	0
bin	0.3	0
bin	0.33333333333333	0
bin	0.36666666666667	0
bin	0.4	0
bin	0.43333333333333	0
bin	0.46666666666667	0
bin	0.5	0
scalar DataCentricNet.host[22].nic.ifq 	dropPk:count 	0
attr interpolationmode  none
attr source  dropPkByQueue
attr title  "dropped packets, count"
scalar DataCentricNet.host[22].nic.ifq 	dropPk:sum(packetBytes) 	0
attr interpolationmode  none
attr source  dropPkByQueue
attr title  "dropped packets, sum(packetBytes)"
scalar DataCentricNet.host[22].nic.mac 	nbTxFrames 	3
scalar DataCentricNet.host[22].nic.mac 	nbRxFrames 	0
scalar DataCentricNet.host[22].nic.mac 	nbDroppedFrames 	0
scalar DataCentricNet.host[22].nic.mac 	nbMissedAcks 	0
scalar DataCentricNet.host[22].nic.mac 	nbRecvdAcks 	0
scalar DataCentricNet.host[22].nic.mac 	nbTxAcks 	0
scalar DataCentricNet.host[22].nic.mac 	nbDuplicates 	0
scalar DataCentricNet.host[22].nic.mac 	meanBackoff 	0.0011733333333333
scalar DataCentricNet.host[22].nic.mac 	nbBackoffs 	3
scalar DataCentricNet.host[22].nic.mac 	backoffDurations 	0.00352
scalar DataCentricNet.host[22].nic.phy 	lossRate:min 	-1.#IND
attr interpolationmode  backward-sample-hold
attr title  "packet loss rate, min"
scalar DataCentricNet.host[22].nic.phy 	lossRate:max 	-1.#IND
attr interpolationmode  backward-sample-hold
attr title  "packet loss rate, max"
[...]
bin	0.066666666666667	0
bin	0.1	0
bin	0.13333333333333	0
bin	0.16666666666667	0
bin	0.2	0
bin	0.23333333333333	0
bin	0.26666666666667	0
bin	0.3	0
bin	0.33333333333333	0
bin	0.36666666666667	0
bin	0.4	0
bin	0.43333333333333	0
bin	0.46666666666667	0
bin	0.5	0
scalar DataCentricNet.host[94].nic.ifq 	dropPk:count 	0
attr interpolationmode  none
attr source  dropPkByQueue
attr title  "dropped packets, count"
scalar DataCentricNet.host[94].nic.ifq 	dropPk:sum(packetBytes) 	0
attr interpolationmode  none
attr source  dropPkByQueue
attr title  "dropped packets, sum(packetBytes)"
scalar DataCentricNet.host[94].nic.mac 	nbTxFrames 	4
scalar DataCentricNet.host[94].nic.mac 	nbRxFrames 	0
scalar DataCentricNet.host[94].nic.mac 	nbDroppedFrames 	0
scalar DataCentricNet.host[94].nic.mac 	nbMissedAcks 	0
scalar DataCentricNet.host[94].nic.mac 	nbRecvdAcks 	0
scalar DataCentricNet.host[94].nic.mac 	nbTxAcks 	0
scalar DataCentricNet.host[94].nic.mac 	nbDuplicates 	0
scalar DataCentricNet.host[94].nic.mac 	meanBackoff 	0.001536
scalar DataCentricNet.host[94].nic.mac 	nbBackoffs 	5
scalar DataCentricNet.host[94].nic.mac 	backoffDurations 	0.00768
scalar DataCentricNet.host[94].nic.phy 	lossRate:min 	-1.#IND
attr interpolationmode  backward-sample-hold
attr title  "packet loss rate, min"
scalar DataCentricNet.host[94].nic.phy 	lossRate:max 	-1.#IND
attr interpolationmode  backward-sample-hold
attr title  "packet loss rate, max"
scalar DataCentricNet.host[94].nic.phy 	lossRate:timeavg 	-1.#IND
attr interpolationmode  backward-sample-hold
attr title  "packet loss rate, timeavg"
scalar DataCentricNet.host[94].nic.phy 	radioState:count 	75
attr interpolationmode  sample-hold
attr title  "radio state (enum), count"
statistic DataCentricNet.host[94].nic.phy 	channelNo:histogram
field count 1
field mean 11
field stddev -1.#IND
field sum 11
field sqrsum 121
field min 11
field max 11
attr interpolationmode  sample-hold
attr title  "channel no, histogram"
bin	-INF	0
bin	10	0
bin	11	1
bin	12	0
scalar DataCentricNet.host[94].nic.phy 	bitrate:min 	250000
attr interpolationmode  sample-hold
attr title  "tx bitrate, min"
attr unit  bps
scalar DataCentricNet.host[94].nic.phy 	bitrate:max 	250000
attr interpolationmode  sample-hold
attr title  "tx bitrate, max"
attr unit  bps
scalar DataCentricNet.host[94].nic.phy 	bitrate:timeavg 	250000
attr interpolationmode  sample-hold
attr title  "tx bitrate, timeavg"
attr unit  bps
scalar DataCentricNet.host[95].app 	trafficSent 	0
scalar DataCentricNet.host[95].app 	"total bytes received" 	0
scalar DataCentricNet.host[95].net 	NumberOfNeighbours 	5
scalar DataCentricNet.host[95].net 	"num of pkts forwarded" 	0
scalar DataCentricNet.host[95].nic.ifq 	queueLength:max 	0
attr interpolationmode  sample-hold
attr title  "queue length, max"
scalar DataCentricNet.host[95].nic.ifq 	queueLength:timeavg 	0
attr interpolationmode  sample-hold
attr title  "queue length, timeavg"
statistic DataCentricNet.host[95].nic.ifq 	queueingTime:histogram
field count 5
field mean 0
field stddev 0
field sum 0
field sqrsum 0
field min 0
field max 0
attr interpolationmode  none
attr title  "queueing time, histogram"
bin	-INF	0
bin	-0.5	0
bin	-0.46666666666667	0
bin	-0.43333333333333	0
bin	-0.4	0
bin	-0.36666666666667	0
bin	-0.33333333333333	0
bin	-0.3	0
bin	-0.26666666666667	0
bin	-0.23333333333333	0
bin	-0.2	0
bin	-0.16666666666667	0
bin	-0.13333333333333	0
bin	-0.1	0
bin	-0.066666666666667	0
bin	-0.033333333333333	0
bin	-6.9388939039072e-018	5
bin	0.033333333333333	0
bin	0.066666666666667	0
bin	0.1	0
bin	0.13333333333333	0
bin	0.16666666666667	0
bin	0.2	0
bin	0.23333333333333	0
bin	0.26666666666667	0
bin	0.3	0
bin	0.33333333333333	0
bin	0.36666666666667	0
bin	0.4	0
bin	0.43333333333333	0
bin	0.46666666666667	0
bin	0.5	0
scalar DataCentricNet.host[95].nic.ifq 	dropPk:count 	0
attr interpolationmode  none
attr source  dropPkByQueue
attr title  "dropped packets, count"
scalar DataCentricNet.host[95].nic.ifq 	dropPk:sum(packetBytes) 	0
attr interpolationmode  none
attr source  dropPkByQueue
attr title  "dropped packets, sum(packetBytes)"
scalar DataCentricNet.host[95].nic.mac 	nbTxFrames 	5
scalar DataCentricNet.host[95].nic.mac 	nbRxFrames 	0
scalar DataCentricNet.host[95].nic.mac 	nbDroppedFrames 	0
scalar DataCentricNet.host[95].nic.mac 	nbMissedAcks 	0
scalar DataCentricNet.host[95].nic.mac 	nbRecvdAcks 	0
scalar DataCentricNet.host[95].nic.mac 	nbTxAcks 	0
scalar DataCentricNet.host[95].nic.mac 	nbDuplicates 	0
scalar DataCentricNet.host[95].nic.mac 	meanBackoff 	0.001664
scalar DataCentricNet.host[95].nic.mac 	nbBackoffs 	5
scalar DataCentricNet.host[95].nic.mac 	backoffDurations 	0.00832
scalar DataCentricNet.host[95].nic.phy 	lossRate:min 	-1.#IND
attr interpolationmode  backward-sample-hold
attr title  "packet loss rate, min"
scalar DataCentricNet.host[95].nic.phy 	lossRate:max 	-1.#IND
attr interpolationmode  backward-sample-hold
attr title  "packet loss rate, max"
scalar DataCentricNet.host[95].nic.phy 	lossRate:timeavg 	-1.#IND
attr interpolationmode  backward-sample-hold
attr title  "packet loss rate, timeavg"
scalar DataCentricNet.host[95].nic.phy 	radioState:count 	81
attr interpolationmode  sample-hold
attr title  "radio state (enum), count"
statistic DataCentricNet.host[95].nic.phy 	channelNo:histogram
field count 1
field mean 11
field stddev -1.#IND
field sum 11
field sqrsum 121
field min 11
field max 11
attr interpolationmode  sample-hold
attr title  "channel no, histogram"
bin	-INF	0
bin	10	0
bin	11	1
bin	12	0
scalar DataCentricNet.host[95].nic.phy 	bitrate:min 	250000
attr interpolationmode  sample-hold
attr title  "tx bitrate, min"
attr unit  bps
scalar DataCentricNet.host[95].nic.phy 	bitrate:max 	250000
attr interpolationmode  sample-hold
attr title  "tx bitrate, max"
attr unit  bps
scalar DataCentricNet.host[95].nic.phy 	bitrate:timeavg 	250000
attr interpolationmode  sample-hold
attr title  "tx bitrate, timeavg"
attr unit  bps
scalar DataCentricNet.host[96].app 	trafficSent 	0
scalar DataCentricNet.host[96].app 	"total bytes received" 	0
scalar DataCentricNet.host[96].net 	NumberOfNeighbours 	5
scalar DataCentricNet.host[96].net 	"num of pkts forwarded" 	0
scalar DataCentricNet.host[96].nic.ifq 	queueLength:max 	0
attr interpolationmode  sample-hold
attr title  "queue length, max"
scalar DataCentricNet.host[96].nic.ifq 	queueLength:timeavg 	0
attr interpolationmode  sample-hold
attr title  "queue length, timeavg"
statistic DataCentricNet.host[96].nic.ifq 	queueingTime:histogram
field count 3
field mean 0
field stddev 0
field sum 0
field sqrsum 0
field min 0
field max 0
attr interpolationmode  none
attr title  "queueing time, histogram"
bin	-INF	0
bin	-0.5	0
bin	-0.46666666666667	0
bin	-0.43333333333333	0
bin	-0.4	0
bin	-0.36666666666667	0
bin	-0.33333333333333	0
bin	-0.3	0
bin	-0.26666666666667	0
bin	-0.23333333333333	0
bin	-0.2	0
bin	-0.16666666666667	0
bin	-0.13333333333333	0
bin	-0.1	0
bin	-0.066666666666667	0
bin	-0.033333333333333	0
bin	-6.9388939039072e-018	3
bin	0.033333333333333	0
bin	0.066666666666667	0
bin	0.1	0
bin	0.13333333333333	0
bin	0.16666666666667	0
bin	0.2	0
bin	0.23333333333333	0
bin	0.26666666666667	0
bin	0.3	0
bin	0.33333333333333	0
bin	0.36666666666667	0
bin	0.4	0
bin	0.43333333333333	0
bin	0.46666666666667	0
bin	0.5	0
scalar DataCentricNet.host[96].nic.ifq 	dropPk:count 	0
attr interpolationmode  none
attr source  dropPkByQueue
attr title  "dropped packets, count"
scalar DataCentricNet.host[96].nic.ifq 	dropPk:sum(packetBytes) 	0
attr interpolationmode  none
attr source  dropPkByQueue
attr title  "dropped packets, sum(packetBytes)"
scalar DataCentricNet.host[96].nic.mac 	nbTxFrames 	3
scalar DataCentricNet.host[96].nic.mac 	nbRxFrames 	0
scalar DataCentricNet.host[96].nic.mac 	nbDroppedFrames 	0
scalar DataCentricNet.host[96].nic.mac 	nbMissedAcks 	0
scalar DataCentricNet.host[96].nic.mac 	nbRecvdAcks 	0
scalar DataCentricNet.host[96].nic.mac 	nbTxAcks 	0
scalar DataCentricNet.host[96].nic.mac 	nbDuplicates 	0
scalar DataCentricNet.host[96].nic.mac 	meanBackoff 	0.00128
scalar DataCentricNet.host[96].nic.mac 	nbBackoffs 	5
scalar DataCentricNet.host[96].nic.mac 	backoffDurations 	0.0064
scalar DataCentricNet.host[96].nic.phy 	lossRate:min 	-1.#IND
attr interpolationmode  backward-sample-hold
attr title  "packet loss rate, min"
scalar DataCentricNet.host[96].nic.phy 	lossRate:max 	-1.#IND
attr interpolationmode  backward-sample-hold
attr title  "packet loss rate, max"
scalar DataCentricNet.host[96].nic.phy 	lossRate:timeavg 	-1.#IND
attr interpolationmode  backward-sample-hold
attr title  "packet loss rate, timeavg"
scalar DataCentricNet.host[96].nic.phy 	radioState:count 	77
attr interpolationmode  sample-hold
attr title  "radio state (enum), count"
statistic DataCentricNet.host[96].nic.phy 	channelNo:histogram
field count 1
field mean 11
field stddev -1.#IND
field sum 11
field sqrsum 121
field min 11
field max 11
attr interpolationmode  sample-hold
attr title  "channel no, histogram"
bin	-INF	0
bin	10	0
bin	11	1
bin	12	0
scalar DataCentricNet.host[96].nic.phy 	bitrate:min 	250000
attr interpolationmode  sample-hold
attr title  "tx bitrate, min"
attr unit  bps
scalar DataCentricNet.host[96].nic.phy 	bitrate:max 	250000
attr interpolationmode  sample-hold
attr title  "tx bitrate, max"
attr unit  bps
scalar DataCentricNet.host[96].nic.phy 	bitrate:timeavg 	250000
attr interpolationmode  sample-hold
attr title  "tx bitrate, timeavg"
attr unit  bps
scalar DataCentricNet.host[97].app 	trafficSent 	0
scalar DataCentricNet.host[97].app 	"total bytes received" 	0
scalar DataCentricNet.host[97].net 	NumberOfNeighbours 	5
scalar DataCentricNet.host[97].net 	"num of pkts forwarded" 	0
scalar DataCentricNet.host[97].nic.ifq 	queueLength:max 	0
attr interpolationmode  sample-hold
attr title  "queue length, max"
scalar DataCentricNet.host[97].nic.ifq 	queueLength:timeavg 	0
attr interpolationmode  sample-hold
attr title  "queue length, timeavg"
statistic DataCentricNet.host[97].nic.ifq 	queueingTime:histogram
field count 3
field mean 0
field stddev 0
field sum 0
field sqrsum 0
field min 0
field max 0
attr interpolationmode  none
attr title  "queueing time, histogram"
bin	-INF	0
bin	-0.5	0
bin	-0.46666666666667	0
bin	-0.43333333333333	0
bin	-0.4	0
bin	-0.36666666666667	0
bin	-0.33333333333333	0
bin	-0.3	0
bin	-0.26666666666667	0
bin	-0.23333333333333	0
bin	-0.2	0
bin	-0.16666666666667	0
bin	-0.13333333333333	0
bin	-0.1	0
bin	-0.066666666666667	0
bin	-0.033333333333333	0
bin	-6.9388939039072e-018	3
bin	0.033333333333333	0
bin	0.066666666666667	0
bin	0.1	0
bin	0.13333333333333	0
bin	0.16666666666667	0
bin	0.2	0
bin	0.23333333333333	0
bin	0.26666666666667	0
bin	0.3	0
bin	0.33333333333333	0
bin	0.36666666666667	0
bin	0.4	0
bin	0.43333333333333	0
bin	0.46666666666667	0
bin	0.5	0
scalar DataCentricNet.host[97].nic.ifq 	dropPk:count 	0
attr interpolationmode  none
attr source  dropPkByQueue
attr title  "dropped packets, count"
scalar DataCentricNet.host[97].nic.ifq 	dropPk:sum(packetBytes) 	0
attr interpolationmode  none
attr source  dropPkByQueue
attr title  "dropped packets, sum(packetBytes)"
scalar DataCentricNet.host[97].nic.mac 	nbTxFrames 	3
scalar DataCentricNet.host[97].nic.mac 	nbRxFrames 	0
scalar DataCentricNet.host[97].nic.mac 	nbDroppedFrames 	0
scalar DataCentricNet.host[97].nic.mac 	nbMissedAcks 	0
scalar DataCentricNet.host[97].nic.mac 	nbRecvdAcks 	0
scalar DataCentricNet.host[97].nic.mac 	nbTxAcks 	0
scalar DataCentricNet.host[97].nic.mac 	nbDuplicates 	0
scalar DataCentricNet.host[97].nic.mac 	meanBackoff 	0.0016
scalar DataCentricNet.host[97].nic.mac 	nbBackoffs 	4
scalar DataCentricNet.host[97].nic.mac 	backoffDurations 	0.0064
scalar DataCentricNet.host[97].nic.phy 	lossRate:min 	-1.#IND
attr interpolationmode  backward-sample-hold
attr title  "packet loss rate, min"
scalar DataCentricNet.host[97].nic.phy 	lossRate:max 	-1.#IND
attr interpolationmode  backward-sample-hold
attr title  "packet loss rate, max"
scalar DataCentricNet.host[97].nic.phy 	lossRate:timeavg 	-1.#IND
attr interpolationmode  backward-sample-hold
attr title  "packet loss rate, timeavg"
scalar DataCentricNet.host[97].nic.phy 	radioState:count 	73
attr interpolationmode  sample-hold
attr title  "radio state (enum), count"
statistic DataCentricNet.host[97].nic.phy 	channelNo:histogram
field count 1
field mean 11
field stddev -1.#IND
field sum 11
field sqrsum 121
field min 11
field max 11
attr interpolationmode  sample-hold
attr title  "channel no, histogram"
bin	-INF	0
bin	10	0
bin	11	1
bin	12	0
scalar DataCentricNet.host[97].nic.phy 	bitrate:min 	250000
attr interpolationmode  sample-hold
attr title  "tx bitrate, min"
attr unit  bps
scalar DataCentricNet.host[97].nic.phy 	bitrate:max 	250000
attr interpolationmode  sample-hold
attr title  "tx bitrate, max"
attr unit  bps
scalar DataCentricNet.host[97].nic.phy 	bitrate:timeavg 	250000
attr interpolationmode  sample-hold
attr title  "tx bitrate, timeavg"
attr unit  bps
scalar DataCentricNet.host[98].app 	trafficSent 	0
scalar DataCentricNet.host[98].app 	"total bytes received" 	0
scalar DataCentricNet.host[98].net 	NumberOfNeighbours 	5
scalar DataCentricNet.host[98].net 	"num of pkts forwarded" 	0
scalar DataCentricNet.host[98].nic.ifq 	queueLength:max 	0
attr interpolationmode  sample-hold
attr title  "queue length, max"
scalar DataCentricNet.host[98].nic.ifq 	queueLength:timeavg 	0
attr interpolationmode  sample-hold
attr title  "queue length, timeavg"
statistic DataCentricNet.host[98].nic.ifq 	queueingTime:histogram
field count 3
field mean 0
field stddev 0
field sum 0
field sqrsum 0
field min 0
field max 0
attr interpolationmode  none
attr title  "queueing time, histogram"
bin	-INF	0
bin	-0.5	0
bin	-0.46666666666667	0
bin	-0.43333333333333	0
bin	-0.4	0
bin	-0.36666666666667	0
bin	-0.33333333333333	0
bin	-0.3	0
bin	-0.26666666666667	0
bin	-0.23333333333333	0
bin	-0.2	0
bin	-0.16666666666667	0
bin	-0.13333333333333	0
bin	-0.1	0
bin	-0.066666666666667	0
bin	-0.033333333333333	0
bin	-6.9388939039072e-018	3
bin	0.033333333333333	0
bin	0.066666666666667	0
bin	0.1	0
bin	0.13333333333333	0
bin	0.16666666666667	0
bin	0.2	0
bin	0.23333333333333	0
bin	0.26666666666667	0
bin	0.3	0
bin	0.33333333333333	0
bin	0.36666666666667	0
bin	0.4	0
bin	0.43333333333333	0
bin	0.46666666666667	0
bin	0.5	0
scalar DataCentricNet.host[98].nic.ifq 	dropPk:count 	0
attr interpolationmode  none
attr source  dropPkByQueue
attr title  "dropped packets, count"
scalar DataCentricNet.host[98].nic.ifq 	dropPk:sum(packetBytes) 	0
attr interpolationmode  none
attr source  dropPkByQueue
attr title  "dropped packets, sum(packetBytes)"
scalar DataCentricNet.host[98].nic.mac 	nbTxFrames 	3
scalar DataCentricNet.host[98].nic.mac 	nbRxFrames 	0
scalar DataCentricNet.host[98].nic.mac 	nbDroppedFrames 	0
scalar DataCentricNet.host[98].nic.mac 	nbMissedAcks 	0
scalar DataCentricNet.host[98].nic.mac 	nbRecvdAcks 	0
scalar DataCentricNet.host[98].nic.mac 	nbTxAcks 	0
scalar DataCentricNet.host[98].nic.mac 	nbDuplicates 	0
scalar DataCentricNet.host[98].nic.mac 	meanBackoff 	0.00096
scalar DataCentricNet.host[98].nic.mac 	nbBackoffs 	3
scalar DataCentricNet.host[98].nic.mac 	backoffDurations 	0.00288
scalar DataCentricNet.host[98].nic.phy 	lossRate:min 	-1.#IND
attr interpolationmode  backward-sample-hold
attr title  "packet loss rate, min"
scalar DataCentricNet.host[98].nic.phy 	lossRate:max 	-1.#IND
attr interpolationmode  backward-sample-hold
attr title  "packet loss rate, max"
scalar DataCentricNet.host[98].nic.phy 	lossRate:timeavg 	-1.#IND
attr interpolationmode  backward-sample-hold
attr title  "packet loss rate, timeavg"
scalar DataCentricNet.host[98].nic.phy 	radioState:count 	83
attr interpolationmode  sample-hold
attr title  "radio state (enum), count"
statistic DataCentricNet.host[98].nic.phy 	channelNo:histogram
field count 1
field mean 11
field stddev -1.#IND
field sum 11
field sqrsum 121
field min 11
field max 11
attr interpolationmode  sample-hold
attr title  "channel no, histogram"
bin	-INF	0
bin	10	0
bin	11	1
bin	12	0
scalar DataCentricNet.host[98].nic.phy 	bitrate:min 	250000
attr interpolationmode  sample-hold
attr title  "tx bitrate, min"
attr unit  bps
scalar DataCentricNet.host[98].nic.phy 	bitrate:max 	250000
attr interpolationmode  sample-hold
attr title  "tx bitrate, max"
attr unit  bps
scalar DataCentricNet.host[98].nic.phy 	bitrate:timeavg 	250000
attr interpolationmode  sample-hold
attr title  "tx bitrate, timeavg"
attr unit  bps
scalar DataCentricNet.host[99].app 	trafficSent 	0
scalar DataCentricNet.host[99].app 	"total bytes received" 	0
scalar DataCentricNet.host[99].net 	NumberOfNeighbours 	3
scalar DataCentricNet.host[99].net 	"num of pkts forwarded" 	0
scalar DataCentricNet.host[99].nic.ifq 	queueLength:max 	0
attr interpolationmode  sample-hold
attr title  "queue length, max"
scalar DataCentricNet.host[99].nic.ifq 	queueLength:timeavg 	0
attr interpolationmode  sample-hold
attr title  "queue length, timeavg"
statistic DataCentricNet.host[99].nic.ifq 	queueingTime:histogram
field count 5
field mean 0
field stddev 0
field sum 0
field sqrsum 0
field min 0
field max 0
attr interpolationmode  none
attr title  "queueing time, histogram"
bin	-INF	0
bin	-0.5	0
bin	-0.46666666666667	0
bin	-0.43333333333333	0
bin	-0.4	0
bin	-0.36666666666667	0
bin	-0.33333333333333	0
bin	-0.3	0
bin	-0.26666666666667	0
bin	-0.23333333333333	0
bin	-0.2	0
bin	-0.16666666666667	0
bin	-0.13333333333333	0
bin	-0.1	0
bin	-0.066666666666667	0
bin	-0.033333333333333	0
bin	-6.9388939039072e-018	5
bin	0.033333333333333	0
bin	0.066666666666667	0
bin	0.1	0
bin	0.13333333333333	0
bin	0.16666666666667	0
bin	0.2	0
bin	0.23333333333333	0
bin	0.26666666666667	0
bin	0.3	0
bin	0.33333333333333	0
bin	0.36666666666667	0
bin	0.4	0
bin	0.43333333333333	0
bin	0.46666666666667	0
bin	0.5	0
scalar DataCentricNet.host[99].nic.ifq 	dropPk:count 	0
attr interpolationmode  none
attr source  dropPkByQueue
attr title  "dropped packets, count"
scalar DataCentricNet.host[99].nic.ifq 	dropPk:sum(packetBytes) 	0
attr interpolationmode  none
attr source  dropPkByQueue
attr title  "dropped packets, sum(packetBytes)"
scalar DataCentricNet.host[99].nic.mac 	nbTxFrames 	5
scalar DataCentricNet.host[99].nic.mac 	nbRxFrames 	0
scalar DataCentricNet.host[99].nic.mac 	nbDroppedFrames 	0
scalar DataCentricNet.host[99].nic.mac 	nbMissedAcks 	0
scalar DataCentricNet.host[99].nic.mac 	nbRecvdAcks 	0
scalar DataCentricNet.host[99].nic.mac 	nbTxAcks 	0
scalar DataCentricNet.host[99].nic.mac 	nbDuplicates 	0
scalar DataCentricNet.host[99].nic.mac 	meanBackoff 	0.0011885714285714
scalar DataCentricNet.host[99].nic.mac 	nbBackoffs 	7
scalar DataCentricNet.host[99].nic.mac 	backoffDurations 	0.00832
scalar DataCentricNet.host[99].nic.phy 	lossRate:min 	-1.#IND
attr interpolationmode  backward-sample-hold
attr title  "packet loss rate, min"
scalar DataCentricNet.host[99].nic.phy 	lossRate:max 	-1.#IND
attr interpolationmode  backward-sample-hold
attr title  "packet loss rate, max"
scalar DataCentricNet.host[99].nic.phy 	lossRate:timeavg 	-1.#IND
attr interpolationmode  backward-sample-hold
attr title  "packet loss rate, timeavg"
scalar DataCentricNet.host[99].nic.phy 	radioState:count 	74
attr interpolationmode  sample-hold
attr title  "radio state (enum), count"
statistic DataCentricNet.host[99].nic.phy 	channelNo:histogram
field count 1
field mean 11
field stddev -1.#IND
field sum 11
field sqrsum 121
field min 11
field max 11
attr interpolationmode  sample-hold
attr title  "channel no, histogram"
bin	-INF	0
bin	10	0
bin	11	1
bin	12	0
scalar DataCentricNet.host[99].nic.phy 	bitrate:min 	250000
attr interpolationmode  sample-hold
attr title  "tx bitrate, min"
attr unit  bps
scalar DataCentricNet.host[99].nic.phy 	bitrate:max 	250000
attr interpolationmode  sample-hold
attr title  "tx bitrate, max"
attr unit  bps
scalar DataCentricNet.host[99].nic.phy 	bitrate:timeavg 	250000
attr interpolationmode  sample-hold
attr title  "tx bitrate, timeavg"
attr unit  bps
