version 2
run AODVScenario_1f-9-20121115-23:53:47-3192
attr configname AODVScenario_1f
attr datetime 20121115-23:53:47
attr experiment AODVScenario_1f
attr inifile AODV.ini
attr iterationvars $numNodes=59
attr iterationvars2 "$numNodes=59, $repetition=0"
attr measurement $numNodes=59
attr network csma802154net
attr numNodes 59
attr processid 3192
attr repetition 0
attr replication #0
attr resultdir results
attr runnumber 9
attr seedset 9

scalar . 	numNodes 	59
scalar csma802154net.fixhost[0].udpApp 	"Total sent" 	13
scalar csma802154net.fixhost[0].udpApp 	"Total received" 	0
scalar csma802154net.fixhost[0].udpApp 	"Total deleted" 	0
scalar csma802154net.fixhost[0].udpApp 	"Mean delay" 	0
scalar csma802154net.fixhost[0].udpApp 	"Min delay" 	0
scalar csma802154net.fixhost[0].udpApp 	"Max delay" 	0
scalar csma802154net.fixhost[0].udpApp 	"Deviation delay" 	-1.#IND
scalar csma802154net.fixhost[1].udpApp 	"Total sent" 	13
scalar csma802154net.fixhost[1].udpApp 	"Total received" 	0
scalar csma802154net.fixhost[1].udpApp 	"Total deleted" 	0
scalar csma802154net.fixhost[1].udpApp 	"Mean delay" 	0
scalar csma802154net.fixhost[1].udpApp 	"Min delay" 	0
scalar csma802154net.fixhost[1].udpApp 	"Max delay" 	0
scalar csma802154net.fixhost[1].udpApp 	"Deviation delay" 	-1.#IND
scalar csma802154net.fixhost[2].udpApp 	"Total sent" 	1
scalar csma802154net.fixhost[2].udpApp 	"Total received" 	13
scalar csma802154net.fixhost[2].udpApp 	"Total deleted" 	0
scalar csma802154net.fixhost[2].udpApp 	"Mean delay" 	0.033874230327308
scalar csma802154net.fixhost[2].udpApp 	"Min delay" 	0.024516076481
scalar csma802154net.fixhost[2].udpApp 	"Max delay" 	0.049796076482
scalar csma802154net.fixhost[2].udpApp 	"Deviation delay" 	0.0070993236513504
scalar csma802154net.fixhost[3].udpApp 	"Total sent" 	1
scalar csma802154net.fixhost[3].udpApp 	"Total received" 	13
scalar csma802154net.fixhost[3].udpApp 	"Total deleted" 	0
scalar csma802154net.fixhost[3].udpApp 	"Mean delay" 	0.038964722256769
scalar csma802154net.fixhost[3].udpApp 	"Min delay" 	0.025156086626
scalar csma802154net.fixhost[3].udpApp 	"Max delay" 	0.072724119526
scalar csma802154net.fixhost[3].udpApp 	"Deviation delay" 	0.014729377009812
scalar csma802154net.fixhost[4].udpApp 	"Total sent" 	1
scalar csma802154net.fixhost[4].udpApp 	"Total received" 	13
scalar csma802154net.fixhost[4].udpApp 	"Total deleted" 	0
scalar csma802154net.fixhost[4].udpApp 	"Mean delay" 	0.0087252544028462
scalar csma802154net.fixhost[4].udpApp 	"Min delay" 	0.007396023633
scalar csma802154net.fixhost[4].udpApp 	"Max delay" 	0.011876023634
scalar csma802154net.fixhost[4].udpApp 	"Deviation delay" 	0.0013440390714467
scalar csma802154net.fixhost[5].udpApp 	"Total sent" 	1
scalar csma802154net.fixhost[5].udpApp 	"Total received" 	0
scalar csma802154net.fixhost[5].udpApp 	"Total deleted" 	0
scalar csma802154net.fixhost[5].udpApp 	"Mean delay" 	0
scalar csma802154net.fixhost[5].udpApp 	"Min delay" 	0
scalar csma802154net.fixhost[5].udpApp 	"Max delay" 	0
scalar csma802154net.fixhost[5].udpApp 	"Deviation delay" 	-1.#IND
scalar csma802154net.fixhost[6].udpApp 	"Total sent" 	1
scalar csma802154net.fixhost[6].udpApp 	"Total received" 	13
scalar csma802154net.fixhost[6].udpApp 	"Total deleted" 	0
scalar csma802154net.fixhost[6].udpApp 	"Mean delay" 	0.059536459661538
scalar csma802154net.fixhost[6].udpApp 	"Min delay" 	0.04032416407
scalar csma802154net.fixhost[6].udpApp 	"Max delay" 	0.086724164071
scalar csma802154net.fixhost[6].udpApp 	"Deviation delay" 	0.011301478067926
scalar csma802154net.fixhost[7].udpApp 	"Total sent" 	0
scalar csma802154net.fixhost[7].udpApp 	"Total received" 	0
scalar csma802154net.fixhost[7].udpApp 	"Total deleted" 	0
scalar csma802154net.fixhost[7].udpApp 	"Mean delay" 	0
scalar csma802154net.fixhost[7].udpApp 	"Min delay" 	0
scalar csma802154net.fixhost[7].udpApp 	"Max delay" 	0
scalar csma802154net.fixhost[7].udpApp 	"Deviation delay" 	-1.#IND
scalar csma802154net.fixhost[8].udpApp 	"Total sent" 	13
scalar csma802154net.fixhost[8].udpApp 	"Total received" 	0
scalar csma802154net.fixhost[8].udpApp 	"Total deleted" 	0
scalar csma802154net.fixhost[8].udpApp 	"Mean delay" 	0
scalar csma802154net.fixhost[8].udpApp 	"Min delay" 	0
scalar csma802154net.fixhost[8].udpApp 	"Max delay" 	0
scalar csma802154net.fixhost[8].udpApp 	"Deviation delay" 	-1.#IND
scalar csma802154net.fixhost[9].udpApp 	"Total sent" 	13
scalar csma802154net.fixhost[9].udpApp 	"Total received" 	0
scalar csma802154net.fixhost[9].udpApp 	"Total deleted" 	0
scalar csma802154net.fixhost[9].udpApp 	"Mean delay" 	0
scalar csma802154net.fixhost[9].udpApp 	"Min delay" 	0
scalar csma802154net.fixhost[9].udpApp 	"Max delay" 	0
scalar csma802154net.fixhost[9].udpApp 	"Deviation delay" 	-1.#IND
scalar csma802154net.fixhost[10].udpApp 	"Total sent" 	1
scalar csma802154net.fixhost[10].udpApp 	"Total received" 	13
scalar csma802154net.fixhost[10].udpApp 	"Total deleted" 	0
scalar csma802154net.fixhost[10].udpApp 	"Mean delay" 	0.033541897443615
scalar csma802154net.fixhost[10].udpApp 	"Min delay" 	0.01595605129
scalar csma802154net.fixhost[10].udpApp 	"Max delay" 	0.13339605129
scalar csma802154net.fixhost[10].udpApp 	"Deviation delay" 	0.031705307426052
scalar csma802154net.fixhost[11].udpApp 	"Total sent" 	0
scalar csma802154net.fixhost[11].udpApp 	"Total received" 	0
scalar csma802154net.fixhost[11].udpApp 	"Total deleted" 	0
scalar csma802154net.fixhost[11].udpApp 	"Mean delay" 	0
scalar csma802154net.fixhost[11].udpApp 	"Min delay" 	0
scalar csma802154net.fixhost[11].udpApp 	"Max delay" 	0
scalar csma802154net.fixhost[11].udpApp 	"Deviation delay" 	-1.#IND
scalar csma802154net.fixhost[12].udpApp 	"Total sent" 	1
scalar csma802154net.fixhost[12].udpApp 	"Total received" 	13
scalar csma802154net.fixhost[12].udpApp 	"Total deleted" 	0
scalar csma802154net.fixhost[12].udpApp 	"Mean delay" 	0.035175153601692
scalar csma802154net.fixhost[12].udpApp 	"Min delay" 	0.021676076679
scalar csma802154net.fixhost[12].udpApp 	"Max delay" 	0.100076076679
scalar csma802154net.fixhost[12].udpApp 	"Deviation delay" 	0.020254313657807
scalar csma802154net.fixhost[13].udpApp 	"Total sent" 	1
scalar csma802154net.fixhost[13].udpApp 	"Total received" 	13
scalar csma802154net.fixhost[13].udpApp 	"Total deleted" 	0
scalar csma802154net.fixhost[13].udpApp 	"Mean delay" 	0.025716665390231
scalar csma802154net.fixhost[13].udpApp 	"Min delay" 	0.016276050006
scalar csma802154net.fixhost[13].udpApp 	"Max delay" 	0.052860050005
scalar csma802154net.fixhost[13].udpApp 	"Deviation delay" 	0.0097266048674391
scalar csma802154net.fixhost[14].udpApp 	"Total sent" 	0
scalar csma802154net.fixhost[14].udpApp 	"Total received" 	0
scalar csma802154net.fixhost[14].udpApp 	"Total deleted" 	0
scalar csma802154net.fixhost[14].udpApp 	"Mean delay" 	0
scalar csma802154net.fixhost[14].udpApp 	"Min delay" 	0
scalar csma802154net.fixhost[14].udpApp 	"Max delay" 	0
scalar csma802154net.fixhost[14].udpApp 	"Deviation delay" 	-1.#IND
scalar csma802154net.fixhost[15].udpApp 	"Total sent" 	1
scalar csma802154net.fixhost[15].udpApp 	"Total received" 	13
scalar csma802154net.fixhost[15].udpApp 	"Total deleted" 	0
scalar csma802154net.fixhost[15].udpApp 	"Mean delay" 	0.035081005398
scalar csma802154net.fixhost[15].udpApp 	"Min delay" 	0.01943607212
scalar csma802154net.fixhost[15].udpApp 	"Max delay" 	0.058684098643
scalar csma802154net.fixhost[15].udpApp 	"Deviation delay" 	0.01321370972479
scalar csma802154net.fixhost[16].udpApp 	"Total sent" 	1
scalar csma802154net.fixhost[16].udpApp 	"Total received" 	13
scalar csma802154net.fixhost[16].udpApp 	"Total deleted" 	0
scalar csma802154net.fixhost[16].udpApp 	"Mean delay" 	0.041871794992308
scalar csma802154net.fixhost[16].udpApp 	"Min delay" 	0.025156102685
scalar csma802154net.fixhost[16].udpApp 	"Max delay" 	0.131004102685
scalar csma802154net.fixhost[16].udpApp 	"Deviation delay" 	0.027527422955366
scalar csma802154net.fixhost[17].udpApp 	"Total sent" 	0
scalar csma802154net.fixhost[17].udpApp 	"Total received" 	0
scalar csma802154net.fixhost[17].udpApp 	"Total deleted" 	0
scalar csma802154net.fixhost[17].udpApp 	"Mean delay" 	0
scalar csma802154net.fixhost[17].udpApp 	"Min delay" 	0
scalar csma802154net.fixhost[17].udpApp 	"Max delay" 	0
scalar csma802154net.fixhost[17].udpApp 	"Deviation delay" 	-1.#IND
scalar csma802154net.fixhost[18].udpApp 	"Total sent" 	1
scalar csma802154net.fixhost[18].udpApp 	"Total received" 	13
scalar csma802154net.fixhost[18].udpApp 	"Total deleted" 	0
scalar csma802154net.fixhost[18].udpApp 	"Mean delay" 	0.013288353079769
scalar csma802154net.fixhost[18].udpApp 	"Min delay" 	0.010876045387
scalar csma802154net.fixhost[18].udpApp 	"Max delay" 	0.016956045388
scalar csma802154net.fixhost[18].udpApp 	"Deviation delay" 	0.0016710383692494
scalar csma802154net.fixhost[19].udpApp 	"Total sent" 	1
scalar csma802154net.fixhost[19].udpApp 	"Total received" 	13
scalar csma802154net.fixhost[19].udpApp 	"Total deleted" 	0
scalar csma802154net.fixhost[19].udpApp 	"Mean delay" 	0.051945647260231
scalar csma802154net.fixhost[19].udpApp 	"Min delay" 	0.029244096155
scalar csma802154net.fixhost[19].udpApp 	"Max delay" 	0.081332096157
scalar csma802154net.fixhost[19].udpApp 	"Deviation delay" 	0.012919950057853
scalar csma802154net.fixhost[20].udpApp 	"Total sent" 	0
scalar csma802154net.fixhost[20].udpApp 	"Total received" 	0
scalar csma802154net.fixhost[20].udpApp 	"Total deleted" 	0
scalar csma802154net.fixhost[20].udpApp 	"Mean delay" 	0
scalar csma802154net.fixhost[20].udpApp 	"Min delay" 	0
scalar csma802154net.fixhost[20].udpApp 	"Max delay" 	0
scalar csma802154net.fixhost[20].udpApp 	"Deviation delay" 	-1.#IND
scalar csma802154net.fixhost[21].udpApp 	"Total sent" 	0
scalar csma802154net.fixhost[21].udpApp 	"Total received" 	0
scalar csma802154net.fixhost[21].udpApp 	"Total deleted" 	0
scalar csma802154net.fixhost[21].udpApp 	"Mean delay" 	0
scalar csma802154net.fixhost[21].udpApp 	"Min delay" 	0
scalar csma802154net.fixhost[21].udpApp 	"Max delay" 	0
scalar csma802154net.fixhost[21].udpApp 	"Deviation delay" 	-1.#IND
scalar csma802154net.fixhost[22].udpApp 	"Total sent" 	0
scalar csma802154net.fixhost[22].udpApp 	"Total received" 	0
scalar csma802154net.fixhost[22].udpApp 	"Total deleted" 	0
scalar csma802154net.fixhost[22].udpApp 	"Mean delay" 	0
scalar csma802154net.fixhost[22].udpApp 	"Min delay" 	0
scalar csma802154net.fixhost[22].udpApp 	"Max delay" 	0
scalar csma802154net.fixhost[22].udpApp 	"Deviation delay" 	-1.#IND
scalar csma802154net.fixhost[23].udpApp 	"Total sent" 	0
scalar csma802154net.fixhost[23].udpApp 	"Total received" 	0
scalar csma802154net.fixhost[23].udpApp 	"Total deleted" 	0
scalar csma802154net.fixhost[23].udpApp 	"Mean delay" 	0
scalar csma802154net.fixhost[23].udpApp 	"Min delay" 	0
scalar csma802154net.fixhost[23].udpApp 	"Max delay" 	0
scalar csma802154net.fixhost[23].udpApp 	"Deviation delay" 	-1.#IND
scalar csma802154net.fixhost[24].udpApp 	"Total sent" 	0
scalar csma802154net.fixhost[24].udpApp 	"Total received" 	0
scalar csma802154net.fixhost[24].udpApp 	"Total deleted" 	0
scalar csma802154net.fixhost[24].udpApp 	"Mean delay" 	0
scalar csma802154net.fixhost[24].udpApp 	"Min delay" 	0
scalar csma802154net.fixhost[24].udpApp 	"Max delay" 	0
scalar csma802154net.fixhost[24].udpApp 	"Deviation delay" 	-1.#IND
scalar csma802154net.fixhost[25].udpApp 	"Total sent" 	0
scalar csma802154net.fixhost[25].udpApp 	"Total received" 	0
scalar csma802154net.fixhost[25].udpApp 	"Total deleted" 	0
scalar csma802154net.fixhost[25].udpApp 	"Mean delay" 	0
scalar csma802154net.fixhost[25].udpApp 	"Min delay" 	0
scalar csma802154net.fixhost[25].udpApp 	"Max delay" 	0
scalar csma802154net.fixhost[25].udpApp 	"Deviation delay" 	-1.#IND
scalar csma802154net.fixhost[26].udpApp 	"Total sent" 	0
scalar csma802154net.fixhost[26].udpApp 	"Total received" 	0
scalar csma802154net.fixhost[26].udpApp 	"Total deleted" 	0
scalar csma802154net.fixhost[26].udpApp 	"Mean delay" 	0
scalar csma802154net.fixhost[26].udpApp 	"Min delay" 	0
scalar csma802154net.fixhost[26].udpApp 	"Max delay" 	0
scalar csma802154net.fixhost[26].udpApp 	"Deviation delay" 	-1.#IND
scalar csma802154net.fixhost[27].udpApp 	"Total sent" 	0
scalar csma802154net.fixhost[27].udpApp 	"Total received" 	0
scalar csma802154net.fixhost[27].udpApp 	"Total deleted" 	0
scalar csma802154net.fixhost[27].udpApp 	"Mean delay" 	0
scalar csma802154net.fixhost[27].udpApp 	"Min delay" 	0
scalar csma802154net.fixhost[27].udpApp 	"Max delay" 	0
scalar csma802154net.fixhost[27].udpApp 	"Deviation delay" 	-1.#IND
scalar csma802154net.fixhost[28].udpApp 	"Total sent" 	0
scalar csma802154net.fixhost[28].udpApp 	"Total received" 	0
scalar csma802154net.fixhost[28].udpApp 	"Total deleted" 	0
scalar csma802154net.fixhost[28].udpApp 	"Mean delay" 	0
scalar csma802154net.fixhost[28].udpApp 	"Min delay" 	0
scalar csma802154net.fixhost[28].udpApp 	"Max delay" 	0
scalar csma802154net.fixhost[28].udpApp 	"Deviation delay" 	-1.#IND
scalar csma802154net.fixhost[29].udpApp 	"Total sent" 	0
scalar csma802154net.fixhost[29].udpApp 	"Total received" 	0
scalar csma802154net.fixhost[29].udpApp 	"Total deleted" 	0
scalar csma802154net.fixhost[29].udpApp 	"Mean delay" 	0
scalar csma802154net.fixhost[29].udpApp 	"Min delay" 	0
scalar csma802154net.fixhost[29].udpApp 	"Max delay" 	0
scalar csma802154net.fixhost[29].udpApp 	"Deviation delay" 	-1.#IND
scalar csma802154net.fixhost[30].udpApp 	"Total sent" 	0
scalar csma802154net.fixhost[30].udpApp 	"Total received" 	0
scalar csma802154net.fixhost[30].udpApp 	"Total deleted" 	0
scalar csma802154net.fixhost[30].udpApp 	"Mean delay" 	0
scalar csma802154net.fixhost[30].udpApp 	"Min delay" 	0
scalar csma802154net.fixhost[30].udpApp 	"Max delay" 	0
scalar csma802154net.fixhost[30].udpApp 	"Deviation delay" 	-1.#IND
scalar csma802154net.fixhost[31].udpApp 	"Total sent" 	0
scalar csma802154net.fixhost[31].udpApp 	"Total received" 	0
scalar csma802154net.fixhost[31].udpApp 	"Total deleted" 	0
scalar csma802154net.fixhost[31].udpApp 	"Mean delay" 	0
scalar csma802154net.fixhost[31].udpApp 	"Min delay" 	0
scalar csma802154net.fixhost[31].udpApp 	"Max delay" 	0
scalar csma802154net.fixhost[31].udpApp 	"Deviation delay" 	-1.#IND
scalar csma802154net.fixhost[32].udpApp 	"Total sent" 	0
scalar csma802154net.fixhost[32].udpApp 	"Total received" 	0
scalar csma802154net.fixhost[32].udpApp 	"Total deleted" 	0
scalar csma802154net.fixhost[32].udpApp 	"Mean delay" 	0
scalar csma802154net.fixhost[32].udpApp 	"Min delay" 	0
scalar csma802154net.fixhost[32].udpApp 	"Max delay" 	0
scalar csma802154net.fixhost[32].udpApp 	"Deviation delay" 	-1.#IND
scalar csma802154net.fixhost[33].udpApp 	"Total sent" 	0
scalar csma802154net.fixhost[33].udpApp 	"Total received" 	0
scalar csma802154net.fixhost[33].udpApp 	"Total deleted" 	0
scalar csma802154net.fixhost[33].udpApp 	"Mean delay" 	0
scalar csma802154net.fixhost[33].udpApp 	"Min delay" 	0
scalar csma802154net.fixhost[33].udpApp 	"Max delay" 	0
scalar csma802154net.fixhost[33].udpApp 	"Deviation delay" 	-1.#IND
scalar csma802154net.fixhost[34].udpApp 	"Total sent" 	0
scalar csma802154net.fixhost[34].udpApp 	"Total received" 	0
scalar csma802154net.fixhost[34].udpApp 	"Total deleted" 	0
scalar csma802154net.fixhost[34].udpApp 	"Mean delay" 	0
scalar csma802154net.fixhost[34].udpApp 	"Min delay" 	0
scalar csma802154net.fixhost[34].udpApp 	"Max delay" 	0
scalar csma802154net.fixhost[34].udpApp 	"Deviation delay" 	-1.#IND
scalar csma802154net.fixhost[35].udpApp 	"Total sent" 	0
scalar csma802154net.fixhost[35].udpApp 	"Total received" 	0
scalar csma802154net.fixhost[35].udpApp 	"Total deleted" 	0
scalar csma802154net.fixhost[35].udpApp 	"Mean delay" 	0
scalar csma802154net.fixhost[35].udpApp 	"Min delay" 	0
scalar csma802154net.fixhost[35].udpApp 	"Max delay" 	0
scalar csma802154net.fixhost[35].udpApp 	"Deviation delay" 	-1.#IND
scalar csma802154net.fixhost[36].udpApp 	"Total sent" 	0
scalar csma802154net.fixhost[36].udpApp 	"Total received" 	0
scalar csma802154net.fixhost[36].udpApp 	"Total deleted" 	0
scalar csma802154net.fixhost[36].udpApp 	"Mean delay" 	0
scalar csma802154net.fixhost[36].udpApp 	"Min delay" 	0
scalar csma802154net.fixhost[36].udpApp 	"Max delay" 	0
scalar csma802154net.fixhost[36].udpApp 	"Deviation delay" 	-1.#IND
scalar csma802154net.fixhost[37].udpApp 	"Total sent" 	0
scalar csma802154net.fixhost[37].udpApp 	"Total received" 	0
scalar csma802154net.fixhost[37].udpApp 	"Total deleted" 	0
scalar csma802154net.fixhost[37].udpApp 	"Mean delay" 	0
scalar csma802154net.fixhost[37].udpApp 	"Min delay" 	0
scalar csma802154net.fixhost[37].udpApp 	"Max delay" 	0
scalar csma802154net.fixhost[37].udpApp 	"Deviation delay" 	-1.#IND
scalar csma802154net.fixhost[38].udpApp 	"Total sent" 	0
scalar csma802154net.fixhost[38].udpApp 	"Total received" 	0
scalar csma802154net.fixhost[38].udpApp 	"Total deleted" 	0
scalar csma802154net.fixhost[38].udpApp 	"Mean delay" 	0
scalar csma802154net.fixhost[38].udpApp 	"Min delay" 	0
scalar csma802154net.fixhost[38].udpApp 	"Max delay" 	0
scalar csma802154net.fixhost[38].udpApp 	"Deviation delay" 	-1.#IND
scalar csma802154net.fixhost[39].udpApp 	"Total sent" 	0
scalar csma802154net.fixhost[39].udpApp 	"Total received" 	0
scalar csma802154net.fixhost[39].udpApp 	"Total deleted" 	0
scalar csma802154net.fixhost[39].udpApp 	"Mean delay" 	0
scalar csma802154net.fixhost[39].udpApp 	"Min delay" 	0
scalar csma802154net.fixhost[39].udpApp 	"Max delay" 	0
scalar csma802154net.fixhost[39].udpApp 	"Deviation delay" 	-1.#IND
scalar csma802154net.fixhost[40].udpApp 	"Total sent" 	0
scalar csma802154net.fixhost[40].udpApp 	"Total received" 	0
scalar csma802154net.fixhost[40].udpApp 	"Total deleted" 	0
scalar csma802154net.fixhost[40].udpApp 	"Mean delay" 	0
scalar csma802154net.fixhost[40].udpApp 	"Min delay" 	0
scalar csma802154net.fixhost[40].udpApp 	"Max delay" 	0
scalar csma802154net.fixhost[40].udpApp 	"Deviation delay" 	-1.#IND
scalar csma802154net.fixhost[41].udpApp 	"Total sent" 	0
scalar csma802154net.fixhost[41].udpApp 	"Total received" 	0
scalar csma802154net.fixhost[41].udpApp 	"Total deleted" 	0
scalar csma802154net.fixhost[41].udpApp 	"Mean delay" 	0
scalar csma802154net.fixhost[41].udpApp 	"Min delay" 	0
scalar csma802154net.fixhost[41].udpApp 	"Max delay" 	0
scalar csma802154net.fixhost[41].udpApp 	"Deviation delay" 	-1.#IND
scalar csma802154net.fixhost[42].udpApp 	"Total sent" 	0
scalar csma802154net.fixhost[42].udpApp 	"Total received" 	0
scalar csma802154net.fixhost[42].udpApp 	"Total deleted" 	0
scalar csma802154net.fixhost[42].udpApp 	"Mean delay" 	0
scalar csma802154net.fixhost[42].udpApp 	"Min delay" 	0
scalar csma802154net.fixhost[42].udpApp 	"Max delay" 	0
scalar csma802154net.fixhost[42].udpApp 	"Deviation delay" 	-1.#IND
scalar csma802154net.fixhost[43].udpApp 	"Total sent" 	0
scalar csma802154net.fixhost[43].udpApp 	"Total received" 	0
scalar csma802154net.fixhost[43].udpApp 	"Total deleted" 	0
scalar csma802154net.fixhost[43].udpApp 	"Mean delay" 	0
scalar csma802154net.fixhost[43].udpApp 	"Min delay" 	0
scalar csma802154net.fixhost[43].udpApp 	"Max delay" 	0
scalar csma802154net.fixhost[43].udpApp 	"Deviation delay" 	-1.#IND
scalar csma802154net.fixhost[44].udpApp 	"Total sent" 	0
scalar csma802154net.fixhost[44].udpApp 	"Total received" 	0
scalar csma802154net.fixhost[44].udpApp 	"Total deleted" 	0
scalar csma802154net.fixhost[44].udpApp 	"Mean delay" 	0
scalar csma802154net.fixhost[44].udpApp 	"Min delay" 	0
scalar csma802154net.fixhost[44].udpApp 	"Max delay" 	0
scalar csma802154net.fixhost[44].udpApp 	"Deviation delay" 	-1.#IND
scalar csma802154net.fixhost[45].udpApp 	"Total sent" 	0
scalar csma802154net.fixhost[45].udpApp 	"Total received" 	0
scalar csma802154net.fixhost[45].udpApp 	"Total deleted" 	0
scalar csma802154net.fixhost[45].udpApp 	"Mean delay" 	0
scalar csma802154net.fixhost[45].udpApp 	"Min delay" 	0
scalar csma802154net.fixhost[45].udpApp 	"Max delay" 	0
scalar csma802154net.fixhost[45].udpApp 	"Deviation delay" 	-1.#IND
scalar csma802154net.fixhost[46].udpApp 	"Total sent" 	0
scalar csma802154net.fixhost[46].udpApp 	"Total received" 	0
scalar csma802154net.fixhost[46].udpApp 	"Total deleted" 	0
scalar csma802154net.fixhost[46].udpApp 	"Mean delay" 	0
scalar csma802154net.fixhost[46].udpApp 	"Min delay" 	0
scalar csma802154net.fixhost[46].udpApp 	"Max delay" 	0
scalar csma802154net.fixhost[46].udpApp 	"Deviation delay" 	-1.#IND
scalar csma802154net.fixhost[47].udpApp 	"Total sent" 	0
scalar csma802154net.fixhost[47].udpApp 	"Total received" 	0
scalar csma802154net.fixhost[47].udpApp 	"Total deleted" 	0
scalar csma802154net.fixhost[47].udpApp 	"Mean delay" 	0
scalar csma802154net.fixhost[47].udpApp 	"Min delay" 	0
scalar csma802154net.fixhost[47].udpApp 	"Max delay" 	0
scalar csma802154net.fixhost[47].udpApp 	"Deviation delay" 	-1.#IND
scalar csma802154net.fixhost[48].udpApp 	"Total sent" 	0
scalar csma802154net.fixhost[48].udpApp 	"Total received" 	0
scalar csma802154net.fixhost[48].udpApp 	"Total deleted" 	0
scalar csma802154net.fixhost[48].udpApp 	"Mean delay" 	0
scalar csma802154net.fixhost[48].udpApp 	"Min delay" 	0
scalar csma802154net.fixhost[48].udpApp 	"Max delay" 	0
scalar csma802154net.fixhost[48].udpApp 	"Deviation delay" 	-1.#IND
scalar csma802154net.fixhost[49].udpApp 	"Total sent" 	0
scalar csma802154net.fixhost[49].udpApp 	"Total received" 	0
scalar csma802154net.fixhost[49].udpApp 	"Total deleted" 	0
scalar csma802154net.fixhost[49].udpApp 	"Mean delay" 	0
scalar csma802154net.fixhost[49].udpApp 	"Min delay" 	0
scalar csma802154net.fixhost[49].udpApp 	"Max delay" 	0
scalar csma802154net.fixhost[49].udpApp 	"Deviation delay" 	-1.#IND
scalar csma802154net.fixhost[50].udpApp 	"Total sent" 	0
scalar csma802154net.fixhost[50].udpApp 	"Total received" 	0
scalar csma802154net.fixhost[50].udpApp 	"Total deleted" 	0
scalar csma802154net.fixhost[50].udpApp 	"Mean delay" 	0
scalar csma802154net.fixhost[50].udpApp 	"Min delay" 	0
scalar csma802154net.fixhost[50].udpApp 	"Max delay" 	0
scalar csma802154net.fixhost[50].udpApp 	"Deviation delay" 	-1.#IND
scalar csma802154net.fixhost[51].udpApp 	"Total sent" 	0
scalar csma802154net.fixhost[51].udpApp 	"Total received" 	0
scalar csma802154net.fixhost[51].udpApp 	"Total deleted" 	0
scalar csma802154net.fixhost[51].udpApp 	"Mean delay" 	0
scalar csma802154net.fixhost[51].udpApp 	"Min delay" 	0
scalar csma802154net.fixhost[51].udpApp 	"Max delay" 	0
scalar csma802154net.fixhost[51].udpApp 	"Deviation delay" 	-1.#IND
scalar csma802154net.fixhost[52].udpApp 	"Total sent" 	0
scalar csma802154net.fixhost[52].udpApp 	"Total received" 	0
scalar csma802154net.fixhost[52].udpApp 	"Total deleted" 	0
scalar csma802154net.fixhost[52].udpApp 	"Mean delay" 	0
scalar csma802154net.fixhost[52].udpApp 	"Min delay" 	0
scalar csma802154net.fixhost[52].udpApp 	"Max delay" 	0
scalar csma802154net.fixhost[52].udpApp 	"Deviation delay" 	-1.#IND
scalar csma802154net.fixhost[53].udpApp 	"Total sent" 	0
scalar csma802154net.fixhost[53].udpApp 	"Total received" 	0
scalar csma802154net.fixhost[53].udpApp 	"Total deleted" 	0
scalar csma802154net.fixhost[53].udpApp 	"Mean delay" 	0
scalar csma802154net.fixhost[53].udpApp 	"Min delay" 	0
scalar csma802154net.fixhost[53].udpApp 	"Max delay" 	0
scalar csma802154net.fixhost[53].udpApp 	"Deviation delay" 	-1.#IND
scalar csma802154net.fixhost[54].udpApp 	"Total sent" 	0
scalar csma802154net.fixhost[54].udpApp 	"Total received" 	0
scalar csma802154net.fixhost[54].udpApp 	"Total deleted" 	0
scalar csma802154net.fixhost[54].udpApp 	"Mean delay" 	0
scalar csma802154net.fixhost[54].udpApp 	"Min delay" 	0
scalar csma802154net.fixhost[54].udpApp 	"Max delay" 	0
scalar csma802154net.fixhost[54].udpApp 	"Deviation delay" 	-1.#IND
scalar csma802154net.fixhost[55].udpApp 	"Total sent" 	0
scalar csma802154net.fixhost[55].udpApp 	"Total received" 	0
scalar csma802154net.fixhost[55].udpApp 	"Total deleted" 	0
scalar csma802154net.fixhost[55].udpApp 	"Mean delay" 	0
scalar csma802154net.fixhost[55].udpApp 	"Min delay" 	0
scalar csma802154net.fixhost[55].udpApp 	"Max delay" 	0
scalar csma802154net.fixhost[55].udpApp 	"Deviation delay" 	-1.#IND
scalar csma802154net.fixhost[56].udpApp 	"Total sent" 	0
scalar csma802154net.fixhost[56].udpApp 	"Total received" 	0
scalar csma802154net.fixhost[56].udpApp 	"Total deleted" 	0
scalar csma802154net.fixhost[56].udpApp 	"Mean delay" 	0
scalar csma802154net.fixhost[56].udpApp 	"Min delay" 	0
scalar csma802154net.fixhost[56].udpApp 	"Max delay" 	0
scalar csma802154net.fixhost[56].udpApp 	"Deviation delay" 	-1.#IND
scalar csma802154net.fixhost[57].udpApp 	"Total sent" 	0
scalar csma802154net.fixhost[57].udpApp 	"Total received" 	0
scalar csma802154net.fixhost[57].udpApp 	"Total deleted" 	0
scalar csma802154net.fixhost[57].udpApp 	"Mean delay" 	0
scalar csma802154net.fixhost[57].udpApp 	"Min delay" 	0
scalar csma802154net.fixhost[57].udpApp 	"Max delay" 	0
scalar csma802154net.fixhost[57].udpApp 	"Deviation delay" 	-1.#IND
scalar csma802154net.fixhost[58].udpApp 	"Total sent" 	0
scalar csma802154net.fixhost[58].udpApp 	"Total received" 	0
scalar csma802154net.fixhost[58].udpApp 	"Total deleted" 	0
scalar csma802154net.fixhost[58].udpApp 	"Mean delay" 	0
scalar csma802154net.fixhost[58].udpApp 	"Min delay" 	0
scalar csma802154net.fixhost[58].udpApp 	"Max delay" 	0
scalar csma802154net.fixhost[58].udpApp 	"Deviation delay" 	-1.#IND
scalar csma802154net.dataCentricNetworkMan 	FailedRREQs 	0
scalar csma802154net.dataCentricNetworkMan 	FailedRegistrations 	1
scalar csma802154net.dataCentricNetworkMan 	LinkFailures 	46
scalar csma802154net.dataCentricNetworkMan 	DataArrivals 	143
