version 2
run General-0-20120607-13:38:52-2788
attr configname General
attr datetime 20120607-13:38:52
attr experiment General
attr inifile omnetpp.ini
attr iterationvars ""
attr iterationvars2 $repetition=0
attr measurement ""
attr network inet.examples.wpan.csma802154.csma802154net
attr processid 2788
attr repetition 0
attr replication #0
attr resultdir results
attr runnumber 0
attr seedset 0

scalar csma802154net.fixhost[0].udpApp[0] 	"Total sent" 	0
scalar csma802154net.fixhost[0].udpApp[0] 	"Total received" 	0
scalar csma802154net.fixhost[0].udpApp[0] 	"Total deleted" 	0
scalar csma802154net.fixhost[0].udpApp[0] 	"Mean delay" 	0
scalar csma802154net.fixhost[0].udpApp[0] 	"Min delay" 	0
scalar csma802154net.fixhost[0].udpApp[0] 	"Max delay" 	0
scalar csma802154net.fixhost[0].udpApp[0] 	"Deviation delay" 	-1.#IND
scalar csma802154net.fixhost[0].udpApp[0] 	outOfOrderPk:count 	0
attr interpolationmode  none
attr source  outOfOrderPk
attr title  "packets received out of order, count"
scalar csma802154net.fixhost[0].udpApp[0] 	outOfOrderPk:sum(packetBytes) 	0
attr interpolationmode  none
attr source  outOfOrderPk
attr title  "packets received out of order, sum(packetBytes)"
scalar csma802154net.fixhost[0].udpApp[0] 	dropPk:count 	0
attr interpolationmode  none
attr source  dropPk
attr title  "packets dropped, count"
scalar csma802154net.fixhost[0].udpApp[0] 	dropPk:sum(packetBytes) 	0
attr interpolationmode  none
attr source  dropPk
attr title  "packets dropped, sum(packetBytes)"
scalar csma802154net.fixhost[0].udpApp[0] 	rcvdPk:count 	0
attr interpolationmode  none
attr source  rcvdPk
attr title  "packets received, count"
scalar csma802154net.fixhost[0].udpApp[0] 	rcvdPk:sum(packetBytes) 	0
attr interpolationmode  none
attr source  rcvdPk
attr title  "packets received, sum(packetBytes)"
statistic csma802154net.fixhost[0].udpApp[0] 	endToEndDelay:histogram
field count 0
field mean 0
field stddev -1.#IND
field sum 0
field sqrsum 0
field min 0
field max 0
attr interpolationmode  none
attr source  messageAge(rcvdPk)
attr title  "delay, histogram"
attr unit  s
bin	-INF	0
bin	-0.5	0
bin	-0.46666666666667	0
bin	-0.43333333333333	0
bin	-0.4	0
bin	-0.36666666666667	0
bin	-0.33333333333333	0
bin	-0.3	0
bin	-0.26666666666667	0
bin	-0.23333333333333	0
bin	-0.2	0
bin	-0.16666666666667	0
bin	-0.13333333333333	0
bin	-0.1	0
bin	-0.066666666666667	0
bin	-0.033333333333333	0
bin	-6.9388939039072e-018	0
bin	0.033333333333333	0
bin	0.066666666666667	0
bin	0.1	0
bin	0.13333333333333	0
bin	0.16666666666667	0
bin	0.2	0
bin	0.23333333333333	0
bin	0.26666666666667	0
bin	0.3	0
bin	0.33333333333333	0
bin	0.36666666666667	0
bin	0.4	0
bin	0.43333333333333	0
bin	0.46666666666667	0
bin	0.5	0
scalar csma802154net.fixhost[0].udpApp[0] 	sentPk:count 	0
attr interpolationmode  none
attr source  sentPk
attr title  "packets sent, count"
scalar csma802154net.fixhost[0].udpApp[0] 	sentPk:sum(packetBytes) 	0
attr interpolationmode  none
attr source  sentPk
attr title  "packets sent, sum(packetBytes)"
scalar csma802154net.fixhost[0].udp 	droppedPkBadChecksum:count 	0
attr interpolationmode  none
attr title  "packets dropped (checksum error), count"
scalar csma802154net.fixhost[0].udp 	droppedPkWrongPort:count 	0
attr interpolationmode  none
attr title  "packets dropped (wrong port), count"
scalar csma802154net.fixhost[0].udp 	passedUpPk:count 	0
attr interpolationmode  none
attr title  "packets passed up, count"
scalar csma802154net.fixhost[0].udp 	rcvdPk:count 	0
attr interpolationmode  none
attr source  rcvdPk
attr title  "packets received, count"
scalar csma802154net.fixhost[0].udp 	rcvdPk:sum(packetBytes) 	0
attr interpolationmode  none
attr source  rcvdPk
attr title  "packets received, sum(packetBytes)"
scalar csma802154net.fixhost[0].udp 	sentPk:count 	0
attr interpolationmode  none
attr source  sentPk
attr title  "packets sent, count"
scalar csma802154net.fixhost[0].udp 	sentPk:sum(packetBytes) 	0
attr interpolationmode  none
attr source  sentPk
attr title  "packets sent, sum(packetBytes)"
scalar csma802154net.fixhost[0].networkLayer.arp 	failedResolution:count 	0
attr title  "ARP failed resolutions, count"
scalar csma802154net.fixhost[0].networkLayer.arp 	initiatedResolution:count 	0
attr title  "ARP initiated resolutions, count"
scalar csma802154net.fixhost[0].networkLayer.arp 	sentReplies:count 	0
attr title  "ARP replies sent, count"
scalar csma802154net.fixhost[0].networkLayer.arp 	sentReq:count 	0
attr title  "ARP request sent, count"
scalar csma802154net.fixhost[0].manetrouting 	"simulated time" 	30.787324463462
scalar csma802154net.fixhost[0].manetrouting 	"Aodv totalSend " 	24
scalar csma802154net.fixhost[0].manetrouting 	"rreq send" 	22
scalar csma802154net.fixhost[0].manetrouting 	"rreq rec" 	22
scalar csma802154net.fixhost[0].manetrouting 	"rrep send" 	1
scalar csma802154net.fixhost[0].manetrouting 	"rrep rec" 	0
scalar csma802154net.fixhost[0].manetrouting 	"rrep ack send" 	0
scalar csma802154net.fixhost[0].manetrouting 	"rrep ack rec" 	0
scalar csma802154net.fixhost[0].manetrouting 	"rerr send" 	0
scalar csma802154net.fixhost[0].manetrouting 	"rerr rec" 	0
scalar csma802154net.fixhost[0].wlan.ifq 	queueLength:max 	0
attr interpolationmode  sample-hold
attr title  "queue length, max"
scalar csma802154net.fixhost[0].wlan.ifq 	queueLength:timeavg 	0
attr interpolationmode  sample-hold
attr title  "queue length, timeavg"
statistic csma802154net.fixhost[0].wlan.ifq 	queueingTime:histogram
field count 1
field mean 0
field stddev -1.#IND
field sum 0
field sqrsum 0
field min 0
field max 0
attr interpolationmode  none
attr title  "queueing time, histogram"
bin	-INF	0
bin	-0.5	0
bin	-0.46666666666667	0
bin	-0.43333333333333	0
bin	-0.4	0
bin	-0.36666666666667	0
bin	-0.33333333333333	0
bin	-0.3	0
bin	-0.26666666666667	0
bin	-0.23333333333333	0
bin	-0.2	0
bin	-0.16666666666667	0
bin	-0.13333333333333	0
bin	-0.1	0
bin	-0.066666666666667	0
bin	-0.033333333333333	0
bin	-6.9388939039072e-018	1
bin	0.033333333333333	0
bin	0.066666666666667	0
bin	0.1	0
bin	0.13333333333333	0
bin	0.16666666666667	0
bin	0.2	0
bin	0.23333333333333	0
bin	0.26666666666667	0
bin	0.3	0
bin	0.33333333333333	0
bin	0.36666666666667	0
bin	0.4	0
bin	0.43333333333333	0
bin	0.46666666666667	0
bin	0.5	0
scalar csma802154net.fixhost[0].wlan.ifq 	dropPk:count 	0
attr interpolationmode  none
attr source  dropPkByQueue
attr title  "dropped packets, count"
scalar csma802154net.fixhost[0].wlan.ifq 	dropPk:sum(packetBytes) 	0
attr interpolationmode  none
attr source  dropPkByQueue
attr title  "dropped packets, sum(packetBytes)"
scalar csma802154net.fixhost[0].wlan.mac 	nbTxFrames 	1
scalar csma802154net.fixhost[0].wlan.mac 	nbRxFrames 	0
scalar csma802154net.fixhost[0].wlan.mac 	nbDroppedFrames 	0
scalar csma802154net.fixhost[0].wlan.mac 	nbMissedAcks 	0
scalar csma802154net.fixhost[0].wlan.mac 	nbRecvdAcks 	0
scalar csma802154net.fixhost[0].wlan.mac 	nbTxAcks 	0
scalar csma802154net.fixhost[0].wlan.mac 	nbDuplicates 	0
scalar csma802154net.fixhost[0].wlan.mac 	numCollision 	-4.836697827223e-026
scalar csma802154net.fixhost[0].wlan.mac 	meanBackoff 	0.00032
scalar csma802154net.fixhost[0].wlan.mac 	nbBackoffs 	1
scalar csma802154net.fixhost[0].wlan.mac 	backoffDurations 	0.00032
scalar csma802154net.fixhost[0].wlan.phy 	lossRate:min 	-1.#IND
attr interpolationmode  backward-sample-hold
attr title  "packet loss rate, min"
scalar csma802154net.fixhost[0].wlan.phy 	lossRate:max 	-1.#IND
attr interpolationmode  backward-sample-hold
attr title  "packet loss rate, max"
scalar csma802154net.fixhost[0].wlan.phy 	lossRate:timeavg 	-1.#IND
attr interpolationmode  backward-sample-hold
attr title  "packet loss rate, timeavg"
scalar csma802154net.fixhost[0].wlan.phy 	radioState:count 	9
attr interpolationmode  sample-hold
attr title  "radio state (enum), count"
statistic csma802154net.fixhost[0].wlan.phy 	channelNo:histogram
field count 1
field mean 0
field stddev -1.#IND
field sum 0
field sqrsum 0
field min 0
field max 0
attr interpolationmode  sample-hold
attr title  "channel no, histogram"
bin	-INF	0
bin	-0.5	0
bin	-0.46666666666667	0
bin	-0.43333333333333	0
bin	-0.4	0
bin	-0.36666666666667	0
bin	-0.33333333333333	0
bin	-0.3	0
bin	-0.26666666666667	0
bin	-0.23333333333333	0
bin	-0.2	0
bin	-0.16666666666667	0
bin	-0.13333333333333	0
bin	-0.1	0
bin	-0.066666666666667	0
bin	-0.033333333333333	0
bin	-6.9388939039072e-018	1
bin	0.033333333333333	0
bin	0.066666666666667	0
bin	0.1	0
bin	0.13333333333333	0
bin	0.16666666666667	0
bin	0.2	0
bin	0.23333333333333	0
bin	0.26666666666667	0
bin	0.3	0
bin	0.33333333333333	0
bin	0.36666666666667	0
bin	0.4	0
bin	0.43333333333333	0
bin	0.46666666666667	0
bin	0.5	0
scalar csma802154net.fixhost[0].wlan.phy 	bitrate:min 	20000
attr interpolationmode  sample-hold
attr title  "tx bitrate, min"
attr unit  bps
scalar csma802154net.fixhost[0].wlan.phy 	bitrate:max 	20000
attr interpolationmode  sample-hold
attr title  "tx bitrate, max"
attr unit  bps
scalar csma802154net.fixhost[0].wlan.phy 	bitrate:timeavg 	20000
attr interpolationmode  sample-hold
attr title  "tx bitrate, timeavg"
attr unit  bps
scalar csma802154net.fixhost[1].udpApp[0] 	"Total sent" 	1
scalar csma802154net.fixhost[1].udpApp[0] 	"Total received" 	0
scalar csma802154net.fixhost[1].udpApp[0] 	"Total deleted" 	0
scalar csma802154net.fixhost[1].udpApp[0] 	"Mean delay" 	0
scalar csma802154net.fixhost[1].udpApp[0] 	"Min delay" 	0
scalar csma802154net.fixhost[1].udpApp[0] 	"Max delay" 	0
scalar csma802154net.fixhost[1].udpApp[0] 	"Deviation delay" 	-1.#IND
scalar csma802154net.fixhost[1].udpApp[0] 	outOfOrderPk:count 	0
attr interpolationmode  none
attr source  outOfOrderPk
attr title  "packets received out of order, count"
scalar csma802154net.fixhost[1].udpApp[0] 	outOfOrderPk:sum(packetBytes) 	0
attr interpolationmode  none
attr source  outOfOrderPk
attr title  "packets received out of order, sum(packetBytes)"
scalar csma802154net.fixhost[1].udpApp[0] 	dropPk:count 	0
attr interpolationmode  none
attr source  dropPk
attr title  "packets dropped, count"
scalar csma802154net.fixhost[1].udpApp[0] 	dropPk:sum(packetBytes) 	0
attr interpolationmode  none
attr source  dropPk
attr title  "packets dropped, sum(packetBytes)"
scalar csma802154net.fixhost[1].udpApp[0] 	rcvdPk:count 	0
attr interpolationmode  none
attr source  rcvdPk
attr title  "packets received, count"
scalar csma802154net.fixhost[1].udpApp[0] 	rcvdPk:sum(packetBytes) 	0
attr interpolationmode  none
attr source  rcvdPk
attr title  "packets received, sum(packetBytes)"
statistic csma802154net.fixhost[1].udpApp[0] 	endToEndDelay:histogram
field count 0
field mean 0
field stddev -1.#IND
field sum 0
field sqrsum 0
field min 0
field max 0
attr interpolationmode  none
attr source  messageAge(rcvdPk)
attr title  "delay, histogram"
attr unit  s
bin	-INF	0
bin	-0.5	0
bin	-0.46666666666667	0
bin	-0.43333333333333	0
bin	-0.4	0
bin	-0.36666666666667	0
bin	-0.33333333333333	0
bin	-0.3	0
bin	-0.26666666666667	0
bin	-0.23333333333333	0
bin	-0.2	0
bin	-0.16666666666667	0
bin	-0.13333333333333	0
bin	-0.1	0
bin	-0.066666666666667	0
bin	-0.033333333333333	0
bin	-6.9388939039072e-018	0
bin	0.033333333333333	0
bin	0.066666666666667	0
bin	0.1	0
bin	0.13333333333333	0
bin	0.16666666666667	0
bin	0.2	0
bin	0.23333333333333	0
bin	0.26666666666667	0
bin	0.3	0
bin	0.33333333333333	0
bin	0.36666666666667	0
bin	0.4	0
bin	0.43333333333333	0
bin	0.46666666666667	0
bin	0.5	0
scalar csma802154net.fixhost[1].udpApp[0] 	sentPk:count 	1
attr interpolationmode  none
attr source  sentPk
attr title  "packets sent, count"
scalar csma802154net.fixhost[1].udpApp[0] 	sentPk:sum(packetBytes) 	64
attr interpolationmode  none
attr source  sentPk
attr title  "packets sent, sum(packetBytes)"
scalar csma802154net.fixhost[1].udp 	droppedPkBadChecksum:count 	0
attr interpolationmode  none
attr title  "packets dropped (checksum error), count"
scalar csma802154net.fixhost[1].udp 	droppedPkWrongPort:count 	0
attr interpolationmode  none
attr title  "packets dropped (wrong port), count"
scalar csma802154net.fixhost[1].udp 	passedUpPk:count 	0
attr interpolationmode  none
attr title  "packets passed up, count"
scalar csma802154net.fixhost[1].udp 	rcvdPk:count 	0
attr interpolationmode  none
attr source  rcvdPk
attr title  "packets received, count"
scalar csma802154net.fixhost[1].udp 	rcvdPk:sum(packetBytes) 	0
attr interpolationmode  none
attr source  rcvdPk
attr title  "packets received, sum(packetBytes)"
scalar csma802154net.fixhost[1].udp 	sentPk:count 	1
attr interpolationmode  none
attr source  sentPk
attr title  "packets sent, count"
scalar csma802154net.fixhost[1].udp 	sentPk:sum(packetBytes) 	72
attr interpolationmode  none
attr source  sentPk
attr title  "packets sent, sum(packetBytes)"
scalar csma802154net.fixhost[1].networkLayer.arp 	failedResolution:count 	0
attr title  "ARP failed resolutions, count"
scalar csma802154net.fixhost[1].networkLayer.arp 	initiatedResolution:count 	0
attr title  "ARP initiated resolutions, count"
scalar csma802154net.fixhost[1].networkLayer.arp 	sentReplies:count 	0
attr title  "ARP replies sent, count"
scalar csma802154net.fixhost[1].networkLayer.arp 	sentReq:count 	0
attr title  "ARP request sent, count"
scalar csma802154net.fixhost[1].wlan.ifq 	queueLength:max 	0
attr interpolationmode  sample-hold
attr title  "queue length, max"
scalar csma802154net.fixhost[1].wlan.ifq 	queueLength:timeavg 	0
attr interpolationmode  sample-hold
attr title  "queue length, timeavg"
statistic csma802154net.fixhost[1].wlan.ifq 	queueingTime:histogram
field count 1
field mean 0
field stddev -1.#IND
field sum 0
field sqrsum 0
field min 0
field max 0
attr interpolationmode  none
attr title  "queueing time, histogram"
bin	-INF	0
bin	-0.5	0
bin	-0.46666666666667	0
bin	-0.43333333333333	0
bin	-0.4	0
bin	-0.36666666666667	0
bin	-0.33333333333333	0
bin	-0.3	0
bin	-0.26666666666667	0
bin	-0.23333333333333	0
bin	-0.2	0
bin	-0.16666666666667	0
bin	-0.13333333333333	0
bin	-0.1	0
bin	-0.066666666666667	0
bin	-0.033333333333333	0
bin	-6.9388939039072e-018	1
bin	0.033333333333333	0
bin	0.066666666666667	0
bin	0.1	0
bin	0.13333333333333	0
bin	0.16666666666667	0
bin	0.2	0
bin	0.23333333333333	0
bin	0.26666666666667	0
bin	0.3	0
bin	0.33333333333333	0
bin	0.36666666666667	0
bin	0.4	0
bin	0.43333333333333	0
bin	0.46666666666667	0
bin	0.5	0
scalar csma802154net.fixhost[1].wlan.ifq 	dropPk:count 	0
attr interpolationmode  none
attr source  dropPkByQueue
attr title  "dropped packets, count"
scalar csma802154net.fixhost[1].wlan.ifq 	dropPk:sum(packetBytes) 	0
attr interpolationmode  none
attr source  dropPkByQueue
attr title  "dropped packets, sum(packetBytes)"
scalar csma802154net.fixhost[1].wlan.mac 	nbTxFrames 	1
scalar csma802154net.fixhost[1].wlan.mac 	nbRxFrames 	0
scalar csma802154net.fixhost[1].wlan.mac 	nbDroppedFrames 	0
scalar csma802154net.fixhost[1].wlan.mac 	nbMissedAcks 	0
scalar csma802154net.fixhost[1].wlan.mac 	nbRecvdAcks 	0
scalar csma802154net.fixhost[1].wlan.mac 	nbTxAcks 	0
scalar csma802154net.fixhost[1].wlan.mac 	nbDuplicates 	0
scalar csma802154net.fixhost[1].wlan.mac 	numCollision 	-4.836697827223e-026
scalar csma802154net.fixhost[1].wlan.mac 	meanBackoff 	0.00064
scalar csma802154net.fixhost[1].wlan.mac 	nbBackoffs 	1
scalar csma802154net.fixhost[1].wlan.mac 	backoffDurations 	0.00064
scalar csma802154net.fixhost[1].wlan.phy 	lossRate:min 	-1.#IND
attr interpolationmode  backward-sample-hold
attr title  "packet loss rate, min"
scalar csma802154net.fixhost[1].wlan.phy 	lossRate:max 	-1.#IND
attr interpolationmode  backward-sample-hold
attr title  "packet loss rate, max"
scalar csma802154net.fixhost[1].wlan.phy 	lossRate:timeavg 	-1.#IND
attr interpolationmode  backward-sample-hold
attr title  "packet loss rate, timeavg"
scalar csma802154net.fixhost[1].wlan.phy 	radioState:count 	7
attr interpolationmode  sample-hold
attr title  "radio state (enum), count"
statistic csma802154net.fixhost[1].wlan.phy 	channelNo:histogram
field count 1
field mean 0
field stddev -1.#IND
field sum 0
field sqrsum 0
field min 0
field max 0
attr interpolationmode  sample-hold
attr title  "channel no, histogram"
bin	-INF	0
bin	-0.5	0
bin	-0.46666666666667	0
bin	-0.43333333333333	0
bin	-0.4	0
bin	-0.36666666666667	0
bin	-0.33333333333333	0
bin	-0.3	0
bin	-0.26666666666667	0
bin	-0.23333333333333	0
bin	-0.2	0
bin	-0.16666666666667	0
bin	-0.13333333333333	0
bin	-0.1	0
bin	-0.066666666666667	0
bin	-0.033333333333333	0
bin	-6.9388939039072e-018	1
bin	0.033333333333333	0
bin	0.066666666666667	0
bin	0.1	0
bin	0.13333333333333	0
bin	0.16666666666667	0
bin	0.2	0
bin	0.23333333333333	0
bin	0.26666666666667	0
bin	0.3	0
bin	0.33333333333333	0
bin	0.36666666666667	0
bin	0.4	0
bin	0.43333333333333	0
bin	0.46666666666667	0
bin	0.5	0
scalar csma802154net.fixhost[1].wlan.phy 	bitrate:min 	20000
attr interpolationmode  sample-hold
attr title  "tx bitrate, min"
attr unit  bps
scalar csma802154net.fixhost[1].wlan.phy 	bitrate:max 	20000
attr interpolationmode  sample-hold
attr title  "tx bitrate, max"
attr unit  bps
scalar csma802154net.fixhost[1].wlan.phy 	bitrate:timeavg 	20000
attr interpolationmode  sample-hold
attr title  "tx bitrate, timeavg"
attr unit  bps
scalar csma802154net.fixhost[2].udpApp[0] 	"Total sent" 	0
scalar csma802154net.fixhost[2].udpApp[0] 	"Total received" 	0
scalar csma802154net.fixhost[2].udpApp[0] 	"Total deleted" 	0
scalar csma802154net.fixhost[2].udpApp[0] 	"Mean delay" 	0
scalar csma802154net.fixhost[2].udpApp[0] 	"Min delay" 	0
scalar csma802154net.fixhost[2].udpApp[0] 	"Max delay" 	0
scalar csma802154net.fixhost[2].udpApp[0] 	"Deviation delay" 	-1.#IND
scalar csma802154net.fixhost[2].udpApp[0] 	outOfOrderPk:count 	0
attr interpolationmode  none
attr source  outOfOrderPk
attr title  "packets received out of order, count"
scalar csma802154net.fixhost[2].udpApp[0] 	outOfOrderPk:sum(packetBytes) 	0
attr interpolationmode  none
attr source  outOfOrderPk
attr title  "packets received out of order, sum(packetBytes)"
scalar csma802154net.fixhost[2].udpApp[0] 	dropPk:count 	0
attr interpolationmode  none
attr source  dropPk
attr title  "packets dropped, count"
scalar csma802154net.fixhost[2].udpApp[0] 	dropPk:sum(packetBytes) 	0
attr interpolationmode  none
attr source  dropPk
attr title  "packets dropped, sum(packetBytes)"
scalar csma802154net.fixhost[2].udpApp[0] 	rcvdPk:count 	0
attr interpolationmode  none
attr source  rcvdPk
attr title  "packets received, count"
scalar csma802154net.fixhost[2].udpApp[0] 	rcvdPk:sum(packetBytes) 	0
attr interpolationmode  none
attr source  rcvdPk
attr title  "packets received, sum(packetBytes)"
statistic csma802154net.fixhost[2].udpApp[0] 	endToEndDelay:histogram
field count 0
field mean 0
field stddev -1.#IND
field sum 0
field sqrsum 0
field min 0
field max 0
attr interpolationmode  none
attr source  messageAge(rcvdPk)
attr title  "delay, histogram"
attr unit  s
bin	-INF	0
bin	-0.5	0
bin	-0.46666666666667	0
bin	-0.43333333333333	0
bin	-0.4	0
bin	-0.36666666666667	0
bin	-0.33333333333333	0
bin	-0.3	0
bin	-0.26666666666667	0
bin	-0.23333333333333	0
bin	-0.2	0
bin	-0.16666666666667	0
bin	-0.13333333333333	0
bin	-0.1	0
bin	-0.066666666666667	0
bin	-0.033333333333333	0
bin	-6.9388939039072e-018	0
bin	0.033333333333333	0
bin	0.066666666666667	0
bin	0.1	0
bin	0.13333333333333	0
bin	0.16666666666667	0
bin	0.2	0
bin	0.23333333333333	0
bin	0.26666666666667	0
bin	0.3	0
bin	0.33333333333333	0
bin	0.36666666666667	0
bin	0.4	0
bin	0.43333333333333	0
bin	0.46666666666667	0
bin	0.5	0
scalar csma802154net.fixhost[2].udpApp[0] 	sentPk:count 	0
attr interpolationmode  none
attr source  sentPk
attr title  "packets sent, count"
scalar csma802154net.fixhost[2].udpApp[0] 	sentPk:sum(packetBytes) 	0
attr interpolationmode  none
attr source  sentPk
attr title  "packets sent, sum(packetBytes)"
scalar csma802154net.fixhost[2].udp 	droppedPkBadChecksum:count 	0
attr interpolationmode  none
attr title  "packets dropped (checksum error), count"
scalar csma802154net.fixhost[2].udp 	droppedPkWrongPort:count 	0
attr interpolationmode  none
attr title  "packets dropped (wrong port), count"
scalar csma802154net.fixhost[2].udp 	passedUpPk:count 	0
attr interpolationmode  none
attr title  "packets passed up, count"
scalar csma802154net.fixhost[2].udp 	rcvdPk:count 	0
attr interpolationmode  none
attr source  rcvdPk
attr title  "packets received, count"
scalar csma802154net.fixhost[2].udp 	rcvdPk:sum(packetBytes) 	0
attr interpolationmode  none
attr source  rcvdPk
attr title  "packets received, sum(packetBytes)"
scalar csma802154net.fixhost[2].udp 	sentPk:count 	0
attr interpolationmode  none
attr source  sentPk
attr title  "packets sent, count"
scalar csma802154net.fixhost[2].udp 	sentPk:sum(packetBytes) 	0
attr interpolationmode  none
attr source  sentPk
attr title  "packets sent, sum(packetBytes)"
scalar csma802154net.fixhost[2].networkLayer.arp 	failedResolution:count 	0
attr title  "ARP failed resolutions, count"
scalar csma802154net.fixhost[2].networkLayer.arp 	initiatedResolution:count 	0
attr title  "ARP initiated resolutions, count"
scalar csma802154net.fixhost[2].networkLayer.arp 	sentReplies:count 	0
attr title  "ARP replies sent, count"
scalar csma802154net.fixhost[2].networkLayer.arp 	sentReq:count 	0
attr title  "ARP request sent, count"
scalar csma802154net.fixhost[2].wlan.ifq 	queueLength:max 	0
attr interpolationmode  sample-hold
attr title  "queue length, max"
scalar csma802154net.fixhost[2].wlan.ifq 	queueLength:timeavg 	0
attr interpolationmode  sample-hold
attr title  "queue length, timeavg"
statistic csma802154net.fixhost[2].wlan.ifq 	queueingTime:histogram
field count 1
field mean 0
field stddev -1.#IND
field sum 0
field sqrsum 0
field min 0
field max 0
attr interpolationmode  none
attr title  "queueing time, histogram"
bin	-INF	0
bin	-0.5	0
bin	-0.46666666666667	0
bin	-0.43333333333333	0
bin	-0.4	0
bin	-0.36666666666667	0
bin	-0.33333333333333	0
bin	-0.3	0
bin	-0.26666666666667	0
bin	-0.23333333333333	0
bin	-0.2	0
bin	-0.16666666666667	0
bin	-0.13333333333333	0
bin	-0.1	0
bin	-0.066666666666667	0
bin	-0.033333333333333	0
bin	-6.9388939039072e-018	1
bin	0.033333333333333	0
bin	0.066666666666667	0
bin	0.1	0
bin	0.13333333333333	0
bin	0.16666666666667	0
bin	0.2	0
bin	0.23333333333333	0
bin	0.26666666666667	0
bin	0.3	0
bin	0.33333333333333	0
bin	0.36666666666667	0
bin	0.4	0
bin	0.43333333333333	0
bin	0.46666666666667	0
bin	0.5	0
scalar csma802154net.fixhost[2].wlan.ifq 	dropPk:count 	0
attr interpolationmode  none
attr source  dropPkByQueue
attr title  "dropped packets, count"
scalar csma802154net.fixhost[2].wlan.ifq 	dropPk:sum(packetBytes) 	0
attr interpolationmode  none
attr source  dropPkByQueue
attr title  "dropped packets, sum(packetBytes)"
scalar csma802154net.fixhost[2].wlan.mac 	nbTxFrames 	0
scalar csma802154net.fixhost[2].wlan.mac 	nbRxFrames 	0
scalar csma802154net.fixhost[2].wlan.mac 	nbDroppedFrames 	0
scalar csma802154net.fixhost[2].wlan.mac 	nbMissedAcks 	0
scalar csma802154net.fixhost[2].wlan.mac 	nbRecvdAcks 	0
scalar csma802154net.fixhost[2].wlan.mac 	nbTxAcks 	0
scalar csma802154net.fixhost[2].wlan.mac 	nbDuplicates 	0
scalar csma802154net.fixhost[2].wlan.mac 	numCollision 	1
scalar csma802154net.fixhost[2].wlan.mac 	meanBackoff 	0.00536
scalar csma802154net.fixhost[2].wlan.mac 	nbBackoffs 	4
scalar csma802154net.fixhost[2].wlan.mac 	backoffDurations 	0.02144
scalar csma802154net.fixhost[2].wlan.phy 	lossRate:min 	-1.#IND
attr interpolationmode  backward-sample-hold
attr title  "packet loss rate, min"
scalar csma802154net.fixhost[2].wlan.phy 	lossRate:max 	-1.#IND
attr interpolationmode  backward-sample-hold
attr title  "packet loss rate, max"
scalar csma802154net.fixhost[2].wlan.phy 	lossRate:timeavg 	-1.#IND
attr interpolationmode  backward-sample-hold
attr title  "packet loss rate, timeavg"
scalar csma802154net.fixhost[2].wlan.phy 	radioState:count 	4
attr interpolationmode  sample-hold
attr title  "radio state (enum), count"
statistic csma802154net.fixhost[2].wlan.phy 	channelNo:histogram
field count 1
field mean 0
field stddev -1.#IND
field sum 0
field sqrsum 0
field min 0
field max 0
attr interpolationmode  sample-hold
attr title  "channel no, histogram"
bin	-INF	0
bin	-0.5	0
bin	-0.46666666666667	0
bin	-0.43333333333333	0
bin	-0.4	0
bin	-0.36666666666667	0
bin	-0.33333333333333	0
bin	-0.3	0
bin	-0.26666666666667	0
bin	-0.23333333333333	0
bin	-0.2	0
bin	-0.16666666666667	0
bin	-0.13333333333333	0
bin	-0.1	0
bin	-0.066666666666667	0
bin	-0.033333333333333	0
bin	-6.9388939039072e-018	1
bin	0.033333333333333	0
bin	0.066666666666667	0
bin	0.1	0
bin	0.13333333333333	0
bin	0.16666666666667	0
bin	0.2	0
bin	0.23333333333333	0
bin	0.26666666666667	0
bin	0.3	0
bin	0.33333333333333	0
bin	0.36666666666667	0
bin	0.4	0
bin	0.43333333333333	0
bin	0.46666666666667	0
bin	0.5	0
scalar csma802154net.fixhost[2].wlan.phy 	bitrate:min 	20000
attr interpolationmode  sample-hold
attr title  "tx bitrate, min"
attr unit  bps
scalar csma802154net.fixhost[2].wlan.phy 	bitrate:max 	20000
attr interpolationmode  sample-hold
attr title  "tx bitrate, max"
attr unit  bps
scalar csma802154net.fixhost[2].wlan.phy 	bitrate:timeavg 	20000
attr interpolationmode  sample-hold
attr title  "tx bitrate, timeavg"
attr unit  bps
scalar csma802154net.fixhost[3].udpApp[0] 	"Total sent" 	0
scalar csma802154net.fixhost[3].udpApp[0] 	"Total received" 	0
scalar csma802154net.fixhost[3].udpApp[0] 	"Total deleted" 	0
scalar csma802154net.fixhost[3].udpApp[0] 	"Mean delay" 	0
scalar csma802154net.fixhost[3].udpApp[0] 	"Min delay" 	0
scalar csma802154net.fixhost[3].udpApp[0] 	"Max delay" 	0
scalar csma802154net.fixhost[3].udpApp[0] 	"Deviation delay" 	-1.#IND
scalar csma802154net.fixhost[3].udpApp[0] 	outOfOrderPk:count 	0
attr interpolationmode  none
attr source  outOfOrderPk
attr title  "packets received out of order, count"
scalar csma802154net.fixhost[3].udpApp[0] 	outOfOrderPk:sum(packetBytes) 	0
attr interpolationmode  none
attr source  outOfOrderPk
attr title  "packets received out of order, sum(packetBytes)"
scalar csma802154net.fixhost[3].udpApp[0] 	dropPk:count 	0
attr interpolationmode  none
attr source  dropPk
attr title  "packets dropped, count"
scalar csma802154net.fixhost[3].udpApp[0] 	dropPk:sum(packetBytes) 	0
attr interpolationmode  none
attr source  dropPk
attr title  "packets dropped, sum(packetBytes)"
scalar csma802154net.fixhost[3].udpApp[0] 	rcvdPk:count 	0
attr interpolationmode  none
attr source  rcvdPk
attr title  "packets received, count"
scalar csma802154net.fixhost[3].udpApp[0] 	rcvdPk:sum(packetBytes) 	0
attr interpolationmode  none
attr source  rcvdPk
attr title  "packets received, sum(packetBytes)"
statistic csma802154net.fixhost[3].udpApp[0] 	endToEndDelay:histogram
field count 0
field mean 0
field stddev -1.#IND
field sum 0
field sqrsum 0
field min 0
field max 0
attr interpolationmode  none
attr source  messageAge(rcvdPk)
attr title  "delay, histogram"
attr unit  s
bin	-INF	0
bin	-0.5	0
bin	-0.46666666666667	0
bin	-0.43333333333333	0
bin	-0.4	0
bin	-0.36666666666667	0
bin	-0.33333333333333	0
bin	-0.3	0
bin	-0.26666666666667	0
bin	-0.23333333333333	0
bin	-0.2	0
bin	-0.16666666666667	0
bin	-0.13333333333333	0
bin	-0.1	0
bin	-0.066666666666667	0
bin	-0.033333333333333	0
bin	-6.9388939039072e-018	0
bin	0.033333333333333	0
bin	0.066666666666667	0
bin	0.1	0
bin	0.13333333333333	0
bin	0.16666666666667	0
bin	0.2	0
bin	0.23333333333333	0
bin	0.26666666666667	0
bin	0.3	0
bin	0.33333333333333	0
bin	0.36666666666667	0
bin	0.4	0
bin	0.43333333333333	0
bin	0.46666666666667	0
bin	0.5	0
scalar csma802154net.fixhost[3].udpApp[0] 	sentPk:count 	0
attr interpolationmode  none
attr source  sentPk
attr title  "packets sent, count"
scalar csma802154net.fixhost[3].udpApp[0] 	sentPk:sum(packetBytes) 	0
attr interpolationmode  none
attr source  sentPk
attr title  "packets sent, sum(packetBytes)"
scalar csma802154net.fixhost[3].udp 	droppedPkBadChecksum:count 	0
attr interpolationmode  none
attr title  "packets dropped (checksum error), count"
scalar csma802154net.fixhost[3].udp 	droppedPkWrongPort:count 	0
attr interpolationmode  none
attr title  "packets dropped (wrong port), count"
scalar csma802154net.fixhost[3].udp 	passedUpPk:count 	0
attr interpolationmode  none
attr title  "packets passed up, count"
scalar csma802154net.fixhost[3].udp 	rcvdPk:count 	0
attr interpolationmode  none
attr source  rcvdPk
attr title  "packets received, count"
scalar csma802154net.fixhost[3].udp 	rcvdPk:sum(packetBytes) 	0
attr interpolationmode  none
attr source  rcvdPk
attr title  "packets received, sum(packetBytes)"
scalar csma802154net.fixhost[3].udp 	sentPk:count 	0
attr interpolationmode  none
attr source  sentPk
attr title  "packets sent, count"
scalar csma802154net.fixhost[3].udp 	sentPk:sum(packetBytes) 	0
attr interpolationmode  none
attr source  sentPk
attr title  "packets sent, sum(packetBytes)"
scalar csma802154net.fixhost[3].networkLayer.arp 	failedResolution:count 	0
attr title  "ARP failed resolutions, count"
scalar csma802154net.fixhost[3].networkLayer.arp 	initiatedResolution:count 	0
attr title  "ARP initiated resolutions, count"
scalar csma802154net.fixhost[3].networkLayer.arp 	sentReplies:count 	0
attr title  "ARP replies sent, count"
scalar csma802154net.fixhost[3].networkLayer.arp 	sentReq:count 	0
attr title  "ARP request sent, count"
scalar csma802154net.fixhost[3].wlan.ifq 	queueLength:max 	0
attr interpolationmode  sample-hold
attr title  "queue length, max"
scalar csma802154net.fixhost[3].wlan.ifq 	queueLength:timeavg 	0
attr interpolationmode  sample-hold
attr title  "queue length, timeavg"
statistic csma802154net.fixhost[3].wlan.ifq 	queueingTime:histogram
field count 1
field mean 0
field stddev -1.#IND
field sum 0
field sqrsum 0
field min 0
field max 0
attr interpolationmode  none
attr title  "queueing time, histogram"
bin	-INF	0
bin	-0.5	0
bin	-0.46666666666667	0
bin	-0.43333333333333	0
bin	-0.4	0
bin	-0.36666666666667	0
bin	-0.33333333333333	0
bin	-0.3	0
bin	-0.26666666666667	0
bin	-0.23333333333333	0
bin	-0.2	0
bin	-0.16666666666667	0
bin	-0.13333333333333	0
bin	-0.1	0
bin	-0.066666666666667	0
bin	-0.033333333333333	0
bin	-6.9388939039072e-018	1
bin	0.033333333333333	0
bin	0.066666666666667	0
bin	0.1	0
bin	0.13333333333333	0
bin	0.16666666666667	0
bin	0.2	0
bin	0.23333333333333	0
bin	0.26666666666667	0
bin	0.3	0
bin	0.33333333333333	0
bin	0.36666666666667	0
bin	0.4	0
bin	0.43333333333333	0
bin	0.46666666666667	0
bin	0.5	0
scalar csma802154net.fixhost[3].wlan.ifq 	dropPk:count 	0
attr interpolationmode  none
attr source  dropPkByQueue
attr title  "dropped packets, count"
scalar csma802154net.fixhost[3].wlan.ifq 	dropPk:sum(packetBytes) 	0
attr interpolationmode  none
attr source  dropPkByQueue
attr title  "dropped packets, sum(packetBytes)"
scalar csma802154net.fixhost[3].wlan.mac 	nbTxFrames 	1
scalar csma802154net.fixhost[3].wlan.mac 	nbRxFrames 	0
scalar csma802154net.fixhost[3].wlan.mac 	nbDroppedFrames 	0
scalar csma802154net.fixhost[3].wlan.mac 	nbMissedAcks 	0
scalar csma802154net.fixhost[3].wlan.mac 	nbRecvdAcks 	0
scalar csma802154net.fixhost[3].wlan.mac 	nbTxAcks 	0
scalar csma802154net.fixhost[3].wlan.mac 	nbDuplicates 	0
scalar csma802154net.fixhost[3].wlan.mac 	numCollision 	-4.836697827223e-026
scalar csma802154net.fixhost[3].wlan.mac 	meanBackoff 	0.00096
scalar csma802154net.fixhost[3].wlan.mac 	nbBackoffs 	1
scalar csma802154net.fixhost[3].wlan.mac 	backoffDurations 	0.00096
scalar csma802154net.fixhost[3].wlan.phy 	lossRate:min 	-1.#IND
attr interpolationmode  backward-sample-hold
attr title  "packet loss rate, min"
scalar csma802154net.fixhost[3].wlan.phy 	lossRate:max 	-1.#IND
attr interpolationmode  backward-sample-hold
attr title  "packet loss rate, max"
scalar csma802154net.fixhost[3].wlan.phy 	lossRate:timeavg 	-1.#IND
attr interpolationmode  backward-sample-hold
attr title  "packet loss rate, timeavg"
scalar csma802154net.fixhost[3].wlan.phy 	radioState:count 	7
attr interpolationmode  sample-hold
attr title  "radio state (enum), count"
statistic csma802154net.fixhost[3].wlan.phy 	channelNo:histogram
field count 1
field mean 0
field stddev -1.#IND
field sum 0
field sqrsum 0
field min 0
field max 0
attr interpolationmode  sample-hold
attr title  "channel no, histogram"
bin	-INF	0
bin	-0.5	0
bin	-0.46666666666667	0
bin	-0.43333333333333	0
bin	-0.4	0
bin	-0.36666666666667	0
bin	-0.33333333333333	0
bin	-0.3	0
bin	-0.26666666666667	0
bin	-0.23333333333333	0
bin	-0.2	0
bin	-0.16666666666667	0
bin	-0.13333333333333	0
bin	-0.1	0
bin	-0.066666666666667	0
bin	-0.033333333333333	0
bin	-6.9388939039072e-018	1
bin	0.033333333333333	0
bin	0.066666666666667	0
bin	0.1	0
bin	0.13333333333333	0
bin	0.16666666666667	0
bin	0.2	0
bin	0.23333333333333	0
bin	0.26666666666667	0
bin	0.3	0
bin	0.33333333333333	0
bin	0.36666666666667	0
bin	0.4	0
bin	0.43333333333333	0
bin	0.46666666666667	0
bin	0.5	0
scalar csma802154net.fixhost[3].wlan.phy 	bitrate:min 	20000
attr interpolationmode  sample-hold
attr title  "tx bitrate, min"
attr unit  bps
scalar csma802154net.fixhost[3].wlan.phy 	bitrate:max 	20000
attr interpolationmode  sample-hold
attr title  "tx bitrate, max"
attr unit  bps
scalar csma802154net.fixhost[3].wlan.phy 	bitrate:timeavg 	20000
attr interpolationmode  sample-hold
attr title  "tx bitrate, timeavg"
attr unit  bps
scalar csma802154net.fixhost[4].udpApp[0] 	"Total sent" 	0
scalar csma802154net.fixhost[4].udpApp[0] 	"Total received" 	0
scalar csma802154net.fixhost[4].udpApp[0] 	"Total deleted" 	0
scalar csma802154net.fixhost[4].udpApp[0] 	"Mean delay" 	0
scalar csma802154net.fixhost[4].udpApp[0] 	"Min delay" 	0
scalar csma802154net.fixhost[4].udpApp[0] 	"Max delay" 	0
scalar csma802154net.fixhost[4].udpApp[0] 	"Deviation delay" 	-1.#IND
scalar csma802154net.fixhost[4].udpApp[0] 	outOfOrderPk:count 	0
attr interpolationmode  none
attr source  outOfOrderPk
attr title  "packets received out of order, count"
scalar csma802154net.fixhost[4].udpApp[0] 	outOfOrderPk:sum(packetBytes) 	0
attr interpolationmode  none
attr source  outOfOrderPk
attr title  "packets received out of order, sum(packetBytes)"
scalar csma802154net.fixhost[4].udpApp[0] 	dropPk:count 	0
attr interpolationmode  none
attr source  dropPk
attr title  "packets dropped, count"
scalar csma802154net.fixhost[4].udpApp[0] 	dropPk:sum(packetBytes) 	0
attr interpolationmode  none
attr source  dropPk
attr title  "packets dropped, sum(packetBytes)"
scalar csma802154net.fixhost[4].udpApp[0] 	rcvdPk:count 	0
attr interpolationmode  none
attr source  rcvdPk
attr title  "packets received, count"
scalar csma802154net.fixhost[4].udpApp[0] 	rcvdPk:sum(packetBytes) 	0
attr interpolationmode  none
attr source  rcvdPk
attr title  "packets received, sum(packetBytes)"
statistic csma802154net.fixhost[4].udpApp[0] 	endToEndDelay:histogram
field count 0
field mean 0
field stddev -1.#IND
field sum 0
field sqrsum 0
field min 0
field max 0
attr interpolationmode  none
attr source  messageAge(rcvdPk)
attr title  "delay, histogram"
attr unit  s
bin	-INF	0
bin	-0.5	0
bin	-0.46666666666667	0
bin	-0.43333333333333	0
bin	-0.4	0
bin	-0.36666666666667	0
bin	-0.33333333333333	0
bin	-0.3	0
bin	-0.26666666666667	0
bin	-0.23333333333333	0
bin	-0.2	0
bin	-0.16666666666667	0
bin	-0.13333333333333	0
bin	-0.1	0
bin	-0.066666666666667	0
bin	-0.033333333333333	0
bin	-6.9388939039072e-018	0
bin	0.033333333333333	0
bin	0.066666666666667	0
bin	0.1	0
bin	0.13333333333333	0
bin	0.16666666666667	0
bin	0.2	0
bin	0.23333333333333	0
bin	0.26666666666667	0
bin	0.3	0
bin	0.33333333333333	0
bin	0.36666666666667	0
bin	0.4	0
bin	0.43333333333333	0
bin	0.46666666666667	0
bin	0.5	0
scalar csma802154net.fixhost[4].udpApp[0] 	sentPk:count 	0
attr interpolationmode  none
attr source  sentPk
attr title  "packets sent, count"
scalar csma802154net.fixhost[4].udpApp[0] 	sentPk:sum(packetBytes) 	0
attr interpolationmode  none
attr source  sentPk
attr title  "packets sent, sum(packetBytes)"
scalar csma802154net.fixhost[4].udp 	droppedPkBadChecksum:count 	0
attr interpolationmode  none
attr title  "packets dropped (checksum error), count"
scalar csma802154net.fixhost[4].udp 	droppedPkWrongPort:count 	0
attr interpolationmode  none
attr title  "packets dropped (wrong port), count"
scalar csma802154net.fixhost[4].udp 	passedUpPk:count 	0
attr interpolationmode  none
attr title  "packets passed up, count"
scalar csma802154net.fixhost[4].udp 	rcvdPk:count 	0
attr interpolationmode  none
attr source  rcvdPk
attr title  "packets received, count"
scalar csma802154net.fixhost[4].udp 	rcvdPk:sum(packetBytes) 	0
attr interpolationmode  none
attr source  rcvdPk
attr title  "packets received, sum(packetBytes)"
scalar csma802154net.fixhost[4].udp 	sentPk:count 	0
attr interpolationmode  none
attr source  sentPk
attr title  "packets sent, count"
scalar csma802154net.fixhost[4].udp 	sentPk:sum(packetBytes) 	0
attr interpolationmode  none
attr source  sentPk
attr title  "packets sent, sum(packetBytes)"
scalar csma802154net.fixhost[4].networkLayer.arp 	failedResolution:count 	0
attr title  "ARP failed resolutions, count"
scalar csma802154net.fixhost[4].networkLayer.arp 	initiatedResolution:count 	0
attr title  "ARP initiated resolutions, count"
scalar csma802154net.fixhost[4].networkLayer.arp 	sentReplies:count 	0
attr title  "ARP replies sent, count"
scalar csma802154net.fixhost[4].networkLayer.arp 	sentReq:count 	0
attr title  "ARP request sent, count"
scalar csma802154net.fixhost[4].wlan.ifq 	queueLength:max 	0
attr interpolationmode  sample-hold
attr title  "queue length, max"
scalar csma802154net.fixhost[4].wlan.ifq 	queueLength:timeavg 	0
attr interpolationmode  sample-hold
attr title  "queue length, timeavg"
statistic csma802154net.fixhost[4].wlan.ifq 	queueingTime:histogram
field count 1
field mean 0
field stddev -1.#IND
field sum 0
field sqrsum 0
field min 0
field max 0
attr interpolationmode  none
attr title  "queueing time, histogram"
bin	-INF	0
bin	-0.5	0
bin	-0.46666666666667	0
bin	-0.43333333333333	0
bin	-0.4	0
bin	-0.36666666666667	0
bin	-0.33333333333333	0
bin	-0.3	0
bin	-0.26666666666667	0
bin	-0.23333333333333	0
bin	-0.2	0
bin	-0.16666666666667	0
bin	-0.13333333333333	0
bin	-0.1	0
bin	-0.066666666666667	0
bin	-0.033333333333333	0
bin	-6.9388939039072e-018	1
bin	0.033333333333333	0
bin	0.066666666666667	0
bin	0.1	0
bin	0.13333333333333	0
bin	0.16666666666667	0
bin	0.2	0
bin	0.23333333333333	0
bin	0.26666666666667	0
bin	0.3	0
bin	0.33333333333333	0
bin	0.36666666666667	0
bin	0.4	0
bin	0.43333333333333	0
bin	0.46666666666667	0
bin	0.5	0
scalar csma802154net.fixhost[4].wlan.ifq 	dropPk:count 	0
attr interpolationmode  none
attr source  dropPkByQueue
attr title  "dropped packets, count"
scalar csma802154net.fixhost[4].wlan.ifq 	dropPk:sum(packetBytes) 	0
attr interpolationmode  none
attr source  dropPkByQueue
attr title  "dropped packets, sum(packetBytes)"
scalar csma802154net.fixhost[4].wlan.mac 	nbTxFrames 	0
scalar csma802154net.fixhost[4].wlan.mac 	nbRxFrames 	0
scalar csma802154net.fixhost[4].wlan.mac 	nbDroppedFrames 	0
scalar csma802154net.fixhost[4].wlan.mac 	nbMissedAcks 	0
scalar csma802154net.fixhost[4].wlan.mac 	nbRecvdAcks 	0
scalar csma802154net.fixhost[4].wlan.mac 	nbTxAcks 	0
scalar csma802154net.fixhost[4].wlan.mac 	nbDuplicates 	0
scalar csma802154net.fixhost[4].wlan.mac 	numCollision 	1
scalar csma802154net.fixhost[4].wlan.mac 	meanBackoff 	0.00472
scalar csma802154net.fixhost[4].wlan.mac 	nbBackoffs 	4
scalar csma802154net.fixhost[4].wlan.mac 	backoffDurations 	0.01888
scalar csma802154net.fixhost[4].wlan.phy 	lossRate:min 	-1.#IND
attr interpolationmode  backward-sample-hold
attr title  "packet loss rate, min"
scalar csma802154net.fixhost[4].wlan.phy 	lossRate:max 	-1.#IND
attr interpolationmode  backward-sample-hold
attr title  "packet loss rate, max"
scalar csma802154net.fixhost[4].wlan.phy 	lossRate:timeavg 	-1.#IND
attr interpolationmode  backward-sample-hold
attr title  "packet loss rate, timeavg"
scalar csma802154net.fixhost[4].wlan.phy 	radioState:count 	4
attr interpolationmode  sample-hold
attr title  "radio state (enum), count"
statistic csma802154net.fixhost[4].wlan.phy 	channelNo:histogram
field count 1
field mean 0
field stddev -1.#IND
field sum 0
field sqrsum 0
field min 0
field max 0
attr interpolationmode  sample-hold
attr title  "channel no, histogram"
bin	-INF	0
bin	-0.5	0
bin	-0.46666666666667	0
bin	-0.43333333333333	0
bin	-0.4	0
bin	-0.36666666666667	0
bin	-0.33333333333333	0
bin	-0.3	0
bin	-0.26666666666667	0
bin	-0.23333333333333	0
bin	-0.2	0
bin	-0.16666666666667	0
bin	-0.13333333333333	0
bin	-0.1	0
bin	-0.066666666666667	0
bin	-0.033333333333333	0
bin	-6.9388939039072e-018	1
bin	0.033333333333333	0
bin	0.066666666666667	0
bin	0.1	0
bin	0.13333333333333	0
bin	0.16666666666667	0
bin	0.2	0
bin	0.23333333333333	0
bin	0.26666666666667	0
bin	0.3	0
bin	0.33333333333333	0
bin	0.36666666666667	0
bin	0.4	0
bin	0.43333333333333	0
bin	0.46666666666667	0
bin	0.5	0
scalar csma802154net.fixhost[4].wlan.phy 	bitrate:min 	20000
attr interpolationmode  sample-hold
attr title  "tx bitrate, min"
attr unit  bps
scalar csma802154net.fixhost[4].wlan.phy 	bitrate:max 	20000
attr interpolationmode  sample-hold
attr title  "tx bitrate, max"
attr unit  bps
scalar csma802154net.fixhost[4].wlan.phy 	bitrate:timeavg 	20000
attr interpolationmode  sample-hold
attr title  "tx bitrate, timeavg"
attr unit  bps
scalar csma802154net.fixhost[5].udpApp[0] 	"Total sent" 	0
scalar csma802154net.fixhost[5].udpApp[0] 	"Total received" 	0
scalar csma802154net.fixhost[5].udpApp[0] 	"Total deleted" 	0
scalar csma802154net.fixhost[5].udpApp[0] 	"Mean delay" 	0
scalar csma802154net.fixhost[5].udpApp[0] 	"Min delay" 	0
scalar csma802154net.fixhost[5].udpApp[0] 	"Max delay" 	0
scalar csma802154net.fixhost[5].udpApp[0] 	"Deviation delay" 	-1.#IND
scalar csma802154net.fixhost[5].udpApp[0] 	outOfOrderPk:count 	0
attr interpolationmode  none
attr source  outOfOrderPk
attr title  "packets received out of order, count"
scalar csma802154net.fixhost[5].udpApp[0] 	outOfOrderPk:sum(packetBytes) 	0
attr interpolationmode  none
attr source  outOfOrderPk
attr title  "packets received out of order, sum(packetBytes)"
scalar csma802154net.fixhost[5].udpApp[0] 	dropPk:count 	0
attr interpolationmode  none
attr source  dropPk
attr title  "packets dropped, count"
scalar csma802154net.fixhost[5].udpApp[0] 	dropPk:sum(packetBytes) 	0
attr interpolationmode  none
attr source  dropPk
attr title  "packets dropped, sum(packetBytes)"
scalar csma802154net.fixhost[5].udpApp[0] 	rcvdPk:count 	0
attr interpolationmode  none
attr source  rcvdPk
attr title  "packets received, count"
scalar csma802154net.fixhost[5].udpApp[0] 	rcvdPk:sum(packetBytes) 	0
attr interpolationmode  none
attr source  rcvdPk
attr title  "packets received, sum(packetBytes)"
statistic csma802154net.fixhost[5].udpApp[0] 	endToEndDelay:histogram
field count 0
field mean 0
field stddev -1.#IND
field sum 0
field sqrsum 0
field min 0
field max 0
attr interpolationmode  none
attr source  messageAge(rcvdPk)
attr title  "delay, histogram"
attr unit  s
bin	-INF	0
bin	-0.5	0
bin	-0.46666666666667	0
bin	-0.43333333333333	0
bin	-0.4	0
bin	-0.36666666666667	0
bin	-0.33333333333333	0
bin	-0.3	0
bin	-0.26666666666667	0
bin	-0.23333333333333	0
bin	-0.2	0
bin	-0.16666666666667	0
bin	-0.13333333333333	0
bin	-0.1	0
bin	-0.066666666666667	0
bin	-0.033333333333333	0
bin	-6.9388939039072e-018	0
bin	0.033333333333333	0
bin	0.066666666666667	0
bin	0.1	0
bin	0.13333333333333	0
bin	0.16666666666667	0
bin	0.2	0
bin	0.23333333333333	0
bin	0.26666666666667	0
bin	0.3	0
bin	0.33333333333333	0
bin	0.36666666666667	0
bin	0.4	0
bin	0.43333333333333	0
bin	0.46666666666667	0
bin	0.5	0
scalar csma802154net.fixhost[5].udpApp[0] 	sentPk:count 	0
attr interpolationmode  none
attr source  sentPk
attr title  "packets sent, count"
scalar csma802154net.fixhost[5].udpApp[0] 	sentPk:sum(packetBytes) 	0
attr interpolationmode  none
attr source  sentPk
attr title  "packets sent, sum(packetBytes)"
scalar csma802154net.fixhost[5].udp 	droppedPkBadChecksum:count 	0
attr interpolationmode  none
attr title  "packets dropped (checksum error), count"
scalar csma802154net.fixhost[5].udp 	droppedPkWrongPort:count 	0
attr interpolationmode  none
attr title  "packets dropped (wrong port), count"
scalar csma802154net.fixhost[5].udp 	passedUpPk:count 	0
attr interpolationmode  none
attr title  "packets passed up, count"
scalar csma802154net.fixhost[5].udp 	rcvdPk:count 	0
attr interpolationmode  none
attr source  rcvdPk
attr title  "packets received, count"
scalar csma802154net.fixhost[5].udp 	rcvdPk:sum(packetBytes) 	0
attr interpolationmode  none
attr source  rcvdPk
attr title  "packets received, sum(packetBytes)"
scalar csma802154net.fixhost[5].udp 	sentPk:count 	0
attr interpolationmode  none
attr source  sentPk
attr title  "packets sent, count"
scalar csma802154net.fixhost[5].udp 	sentPk:sum(packetBytes) 	0
attr interpolationmode  none
attr source  sentPk
attr title  "packets sent, sum(packetBytes)"
scalar csma802154net.fixhost[5].networkLayer.arp 	failedResolution:count 	0
attr title  "ARP failed resolutions, count"
scalar csma802154net.fixhost[5].networkLayer.arp 	initiatedResolution:count 	0
attr title  "ARP initiated resolutions, count"
scalar csma802154net.fixhost[5].networkLayer.arp 	sentReplies:count 	0
attr title  "ARP replies sent, count"
scalar csma802154net.fixhost[5].networkLayer.arp 	sentReq:count 	0
attr title  "ARP request sent, count"
scalar csma802154net.fixhost[5].wlan.ifq 	queueLength:max 	0
attr interpolationmode  sample-hold
attr title  "queue length, max"
scalar csma802154net.fixhost[5].wlan.ifq 	queueLength:timeavg 	0
attr interpolationmode  sample-hold
attr title  "queue length, timeavg"
statistic csma802154net.fixhost[5].wlan.ifq 	queueingTime:histogram
field count 1
field mean 0
field stddev -1.#IND
field sum 0
field sqrsum 0
field min 0
field max 0
attr interpolationmode  none
attr title  "queueing time, histogram"
bin	-INF	0
bin	-0.5	0
bin	-0.46666666666667	0
bin	-0.43333333333333	0
bin	-0.4	0
bin	-0.36666666666667	0
bin	-0.33333333333333	0
bin	-0.3	0
bin	-0.26666666666667	0
bin	-0.23333333333333	0
bin	-0.2	0
bin	-0.16666666666667	0
bin	-0.13333333333333	0
bin	-0.1	0
bin	-0.066666666666667	0
bin	-0.033333333333333	0
bin	-6.9388939039072e-018	1
bin	0.033333333333333	0
bin	0.066666666666667	0
bin	0.1	0
bin	0.13333333333333	0
bin	0.16666666666667	0
bin	0.2	0
bin	0.23333333333333	0
bin	0.26666666666667	0
bin	0.3	0
bin	0.33333333333333	0
bin	0.36666666666667	0
bin	0.4	0
bin	0.43333333333333	0
bin	0.46666666666667	0
bin	0.5	0
scalar csma802154net.fixhost[5].wlan.ifq 	dropPk:count 	0
attr interpolationmode  none
attr source  dropPkByQueue
attr title  "dropped packets, count"
scalar csma802154net.fixhost[5].wlan.ifq 	dropPk:sum(packetBytes) 	0
attr interpolationmode  none
attr source  dropPkByQueue
attr title  "dropped packets, sum(packetBytes)"
scalar csma802154net.fixhost[5].wlan.mac 	nbTxFrames 	0
scalar csma802154net.fixhost[5].wlan.mac 	nbRxFrames 	0
scalar csma802154net.fixhost[5].wlan.mac 	nbDroppedFrames 	0
scalar csma802154net.fixhost[5].wlan.mac 	nbMissedAcks 	0
scalar csma802154net.fixhost[5].wlan.mac 	nbRecvdAcks 	0
scalar csma802154net.fixhost[5].wlan.mac 	nbTxAcks 	0
scalar csma802154net.fixhost[5].wlan.mac 	nbDuplicates 	0
scalar csma802154net.fixhost[5].wlan.mac 	numCollision 	1
scalar csma802154net.fixhost[5].wlan.mac 	meanBackoff 	0.00664
scalar csma802154net.fixhost[5].wlan.mac 	nbBackoffs 	4
scalar csma802154net.fixhost[5].wlan.mac 	backoffDurations 	0.02656
scalar csma802154net.fixhost[5].wlan.phy 	lossRate:min 	-1.#IND
attr interpolationmode  backward-sample-hold
attr title  "packet loss rate, min"
scalar csma802154net.fixhost[5].wlan.phy 	lossRate:max 	-1.#IND
attr interpolationmode  backward-sample-hold
attr title  "packet loss rate, max"
scalar csma802154net.fixhost[5].wlan.phy 	lossRate:timeavg 	-1.#IND
attr interpolationmode  backward-sample-hold
attr title  "packet loss rate, timeavg"
scalar csma802154net.fixhost[5].wlan.phy 	radioState:count 	4
attr interpolationmode  sample-hold
attr title  "radio state (enum), count"
statistic csma802154net.fixhost[5].wlan.phy 	channelNo:histogram
field count 1
field mean 0
field stddev -1.#IND
field sum 0
field sqrsum 0
field min 0
field max 0
attr interpolationmode  sample-hold
attr title  "channel no, histogram"
bin	-INF	0
bin	-0.5	0
bin	-0.46666666666667	0
bin	-0.43333333333333	0
bin	-0.4	0
bin	-0.36666666666667	0
bin	-0.33333333333333	0
bin	-0.3	0
bin	-0.26666666666667	0
bin	-0.23333333333333	0
bin	-0.2	0
bin	-0.16666666666667	0
bin	-0.13333333333333	0
bin	-0.1	0
bin	-0.066666666666667	0
bin	-0.033333333333333	0
bin	-6.9388939039072e-018	1
bin	0.033333333333333	0
bin	0.066666666666667	0
bin	0.1	0
bin	0.13333333333333	0
bin	0.16666666666667	0
bin	0.2	0
bin	0.23333333333333	0
bin	0.26666666666667	0
bin	0.3	0
bin	0.33333333333333	0
bin	0.36666666666667	0
bin	0.4	0
bin	0.43333333333333	0
bin	0.46666666666667	0
bin	0.5	0
scalar csma802154net.fixhost[5].wlan.phy 	bitrate:min 	20000
attr interpolationmode  sample-hold
attr title  "tx bitrate, min"
attr unit  bps
scalar csma802154net.fixhost[5].wlan.phy 	bitrate:max 	20000
attr interpolationmode  sample-hold
attr title  "tx bitrate, max"
attr unit  bps
scalar csma802154net.fixhost[5].wlan.phy 	bitrate:timeavg 	20000
attr interpolationmode  sample-hold
attr title  "tx bitrate, timeavg"
attr unit  bps
scalar csma802154net.fixhost[6].udpApp[0] 	"Total sent" 	0
scalar csma802154net.fixhost[6].udpApp[0] 	"Total received" 	0
scalar csma802154net.fixhost[6].udpApp[0] 	"Total deleted" 	0
scalar csma802154net.fixhost[6].udpApp[0] 	"Mean delay" 	0
scalar csma802154net.fixhost[6].udpApp[0] 	"Min delay" 	0
scalar csma802154net.fixhost[6].udpApp[0] 	"Max delay" 	0
scalar csma802154net.fixhost[6].udpApp[0] 	"Deviation delay" 	-1.#IND
scalar csma802154net.fixhost[6].udpApp[0] 	outOfOrderPk:count 	0
attr interpolationmode  none
attr source  outOfOrderPk
attr title  "packets received out of order, count"
scalar csma802154net.fixhost[6].udpApp[0] 	outOfOrderPk:sum(packetBytes) 	0
attr interpolationmode  none
attr source  outOfOrderPk
attr title  "packets received out of order, sum(packetBytes)"
scalar csma802154net.fixhost[6].udpApp[0] 	dropPk:count 	0
attr interpolationmode  none
attr source  dropPk
attr title  "packets dropped, count"
scalar csma802154net.fixhost[6].udpApp[0] 	dropPk:sum(packetBytes) 	0
attr interpolationmode  none
attr source  dropPk
attr title  "packets dropped, sum(packetBytes)"
scalar csma802154net.fixhost[6].udpApp[0] 	rcvdPk:count 	0
attr interpolationmode  none
attr source  rcvdPk
attr title  "packets received, count"
scalar csma802154net.fixhost[6].udpApp[0] 	rcvdPk:sum(packetBytes) 	0
attr interpolationmode  none
attr source  rcvdPk
attr title  "packets received, sum(packetBytes)"
statistic csma802154net.fixhost[6].udpApp[0] 	endToEndDelay:histogram
field count 0
field mean 0
field stddev -1.#IND
field sum 0
field sqrsum 0
field min 0
field max 0
attr interpolationmode  none
attr source  messageAge(rcvdPk)
attr title  "delay, histogram"
attr unit  s
bin	-INF	0
bin	-0.5	0
bin	-0.46666666666667	0
bin	-0.43333333333333	0
bin	-0.4	0
bin	-0.36666666666667	0
bin	-0.33333333333333	0
bin	-0.3	0
bin	-0.26666666666667	0
bin	-0.23333333333333	0
bin	-0.2	0
bin	-0.16666666666667	0
bin	-0.13333333333333	0
bin	-0.1	0
bin	-0.066666666666667	0
bin	-0.033333333333333	0
bin	-6.9388939039072e-018	0
bin	0.033333333333333	0
bin	0.066666666666667	0
bin	0.1	0
bin	0.13333333333333	0
bin	0.16666666666667	0
bin	0.2	0
bin	0.23333333333333	0
bin	0.26666666666667	0
bin	0.3	0
bin	0.33333333333333	0
bin	0.36666666666667	0
bin	0.4	0
bin	0.43333333333333	0
bin	0.46666666666667	0
bin	0.5	0
scalar csma802154net.fixhost[6].udpApp[0] 	sentPk:count 	0
attr interpolationmode  none
attr source  sentPk
attr title  "packets sent, count"
scalar csma802154net.fixhost[6].udpApp[0] 	sentPk:sum(packetBytes) 	0
attr interpolationmode  none
attr source  sentPk
attr title  "packets sent, sum(packetBytes)"
scalar csma802154net.fixhost[6].udp 	droppedPkBadChecksum:count 	0
attr interpolationmode  none
attr title  "packets dropped (checksum error), count"
scalar csma802154net.fixhost[6].udp 	droppedPkWrongPort:count 	0
attr interpolationmode  none
attr title  "packets dropped (wrong port), count"
scalar csma802154net.fixhost[6].udp 	passedUpPk:count 	0
attr interpolationmode  none
attr title  "packets passed up, count"
scalar csma802154net.fixhost[6].udp 	rcvdPk:count 	0
attr interpolationmode  none
attr source  rcvdPk
attr title  "packets received, count"
scalar csma802154net.fixhost[6].udp 	rcvdPk:sum(packetBytes) 	0
attr interpolationmode  none
attr source  rcvdPk
attr title  "packets received, sum(packetBytes)"
scalar csma802154net.fixhost[6].udp 	sentPk:count 	0
attr interpolationmode  none
attr source  sentPk
attr title  "packets sent, count"
scalar csma802154net.fixhost[6].udp 	sentPk:sum(packetBytes) 	0
attr interpolationmode  none
attr source  sentPk
attr title  "packets sent, sum(packetBytes)"
scalar csma802154net.fixhost[6].networkLayer.arp 	failedResolution:count 	0
attr title  "ARP failed resolutions, count"
scalar csma802154net.fixhost[6].networkLayer.arp 	initiatedResolution:count 	0
attr title  "ARP initiated resolutions, count"
scalar csma802154net.fixhost[6].networkLayer.arp 	sentReplies:count 	0
attr title  "ARP replies sent, count"
scalar csma802154net.fixhost[6].networkLayer.arp 	sentReq:count 	0
attr title  "ARP request sent, count"
scalar csma802154net.fixhost[6].wlan.ifq 	queueLength:max 	0
attr interpolationmode  sample-hold
attr title  "queue length, max"
scalar csma802154net.fixhost[6].wlan.ifq 	queueLength:timeavg 	0
attr interpolationmode  sample-hold
attr title  "queue length, timeavg"
statistic csma802154net.fixhost[6].wlan.ifq 	queueingTime:histogram
field count 1
field mean 0
field stddev -1.#IND
field sum 0
field sqrsum 0
field min 0
field max 0
attr interpolationmode  none
attr title  "queueing time, histogram"
bin	-INF	0
bin	-0.5	0
bin	-0.46666666666667	0
bin	-0.43333333333333	0
bin	-0.4	0
bin	-0.36666666666667	0
bin	-0.33333333333333	0
bin	-0.3	0
bin	-0.26666666666667	0
bin	-0.23333333333333	0
bin	-0.2	0
bin	-0.16666666666667	0
bin	-0.13333333333333	0
bin	-0.1	0
bin	-0.066666666666667	0
bin	-0.033333333333333	0
bin	-6.9388939039072e-018	1
bin	0.033333333333333	0
bin	0.066666666666667	0
bin	0.1	0
bin	0.13333333333333	0
bin	0.16666666666667	0
bin	0.2	0
bin	0.23333333333333	0
bin	0.26666666666667	0
bin	0.3	0
bin	0.33333333333333	0
bin	0.36666666666667	0
bin	0.4	0
bin	0.43333333333333	0
bin	0.46666666666667	0
bin	0.5	0
scalar csma802154net.fixhost[6].wlan.ifq 	dropPk:count 	0
attr interpolationmode  none
attr source  dropPkByQueue
attr title  "dropped packets, count"
scalar csma802154net.fixhost[6].wlan.ifq 	dropPk:sum(packetBytes) 	0
attr interpolationmode  none
attr source  dropPkByQueue
attr title  "dropped packets, sum(packetBytes)"
scalar csma802154net.fixhost[6].wlan.mac 	nbTxFrames 	0
scalar csma802154net.fixhost[6].wlan.mac 	nbRxFrames 	0
scalar csma802154net.fixhost[6].wlan.mac 	nbDroppedFrames 	0
scalar csma802154net.fixhost[6].wlan.mac 	nbMissedAcks 	0
scalar csma802154net.fixhost[6].wlan.mac 	nbRecvdAcks 	0
scalar csma802154net.fixhost[6].wlan.mac 	nbTxAcks 	0
scalar csma802154net.fixhost[6].wlan.mac 	nbDuplicates 	0
scalar csma802154net.fixhost[6].wlan.mac 	numCollision 	1
scalar csma802154net.fixhost[6].wlan.mac 	meanBackoff 	0.003264
scalar csma802154net.fixhost[6].wlan.mac 	nbBackoffs 	5
scalar csma802154net.fixhost[6].wlan.mac 	backoffDurations 	0.01632
scalar csma802154net.fixhost[6].wlan.phy 	lossRate:min 	-1.#IND
attr interpolationmode  backward-sample-hold
attr title  "packet loss rate, min"
scalar csma802154net.fixhost[6].wlan.phy 	lossRate:max 	-1.#IND
attr interpolationmode  backward-sample-hold
attr title  "packet loss rate, max"
scalar csma802154net.fixhost[6].wlan.phy 	lossRate:timeavg 	-1.#IND
attr interpolationmode  backward-sample-hold
attr title  "packet loss rate, timeavg"
scalar csma802154net.fixhost[6].wlan.phy 	radioState:count 	4
attr interpolationmode  sample-hold
attr title  "radio state (enum), count"
statistic csma802154net.fixhost[6].wlan.phy 	channelNo:histogram
field count 1
field mean 0
field stddev -1.#IND
field sum 0
field sqrsum 0
field min 0
field max 0
attr interpolationmode  sample-hold
attr title  "channel no, histogram"
bin	-INF	0
bin	-0.5	0
bin	-0.46666666666667	0
bin	-0.43333333333333	0
bin	-0.4	0
bin	-0.36666666666667	0
bin	-0.33333333333333	0
bin	-0.3	0
bin	-0.26666666666667	0
bin	-0.23333333333333	0
bin	-0.2	0
bin	-0.16666666666667	0
bin	-0.13333333333333	0
bin	-0.1	0
bin	-0.066666666666667	0
bin	-0.033333333333333	0
bin	-6.9388939039072e-018	1
bin	0.033333333333333	0
bin	0.066666666666667	0
bin	0.1	0
bin	0.13333333333333	0
bin	0.16666666666667	0
bin	0.2	0
bin	0.23333333333333	0
bin	0.26666666666667	0
bin	0.3	0
bin	0.33333333333333	0
bin	0.36666666666667	0
bin	0.4	0
bin	0.43333333333333	0
bin	0.46666666666667	0
bin	0.5	0
scalar csma802154net.fixhost[6].wlan.phy 	bitrate:min 	20000
attr interpolationmode  sample-hold
attr title  "tx bitrate, min"
attr unit  bps
scalar csma802154net.fixhost[6].wlan.phy 	bitrate:max 	20000
attr interpolationmode  sample-hold
attr title  "tx bitrate, max"
attr unit  bps
scalar csma802154net.fixhost[6].wlan.phy 	bitrate:timeavg 	20000
attr interpolationmode  sample-hold
attr title  "tx bitrate, timeavg"
attr unit  bps
scalar csma802154net.fixhost[7].udpApp[0] 	"Total sent" 	0
scalar csma802154net.fixhost[7].udpApp[0] 	"Total received" 	0
scalar csma802154net.fixhost[7].udpApp[0] 	"Total deleted" 	0
scalar csma802154net.fixhost[7].udpApp[0] 	"Mean delay" 	0
scalar csma802154net.fixhost[7].udpApp[0] 	"Min delay" 	0
scalar csma802154net.fixhost[7].udpApp[0] 	"Max delay" 	0
scalar csma802154net.fixhost[7].udpApp[0] 	"Deviation delay" 	-1.#IND
scalar csma802154net.fixhost[7].udpApp[0] 	outOfOrderPk:count 	0
attr interpolationmode  none
attr source  outOfOrderPk
attr title  "packets received out of order, count"
scalar csma802154net.fixhost[7].udpApp[0] 	outOfOrderPk:sum(packetBytes) 	0
attr interpolationmode  none
attr source  outOfOrderPk
attr title  "packets received out of order, sum(packetBytes)"
scalar csma802154net.fixhost[7].udpApp[0] 	dropPk:count 	0
attr interpolationmode  none
attr source  dropPk
attr title  "packets dropped, count"
scalar csma802154net.fixhost[7].udpApp[0] 	dropPk:sum(packetBytes) 	0
attr interpolationmode  none
attr source  dropPk
attr title  "packets dropped, sum(packetBytes)"
scalar csma802154net.fixhost[7].udpApp[0] 	rcvdPk:count 	0
attr interpolationmode  none
attr source  rcvdPk
attr title  "packets received, count"
scalar csma802154net.fixhost[7].udpApp[0] 	rcvdPk:sum(packetBytes) 	0
attr interpolationmode  none
attr source  rcvdPk
attr title  "packets received, sum(packetBytes)"
statistic csma802154net.fixhost[7].udpApp[0] 	endToEndDelay:histogram
field count 0
field mean 0
field stddev -1.#IND
field sum 0
field sqrsum 0
field min 0
field max 0
attr interpolationmode  none
attr source  messageAge(rcvdPk)
attr title  "delay, histogram"
attr unit  s
bin	-INF	0
bin	-0.5	0
bin	-0.46666666666667	0
bin	-0.43333333333333	0
bin	-0.4	0
bin	-0.36666666666667	0
bin	-0.33333333333333	0
bin	-0.3	0
bin	-0.26666666666667	0
bin	-0.23333333333333	0
bin	-0.2	0
bin	-0.16666666666667	0
bin	-0.13333333333333	0
bin	-0.1	0
bin	-0.066666666666667	0
bin	-0.033333333333333	0
bin	-6.9388939039072e-018	0
bin	0.033333333333333	0
bin	0.066666666666667	0
bin	0.1	0
bin	0.13333333333333	0
bin	0.16666666666667	0
bin	0.2	0
bin	0.23333333333333	0
bin	0.26666666666667	0
bin	0.3	0
bin	0.33333333333333	0
bin	0.36666666666667	0
bin	0.4	0
bin	0.43333333333333	0
bin	0.46666666666667	0
bin	0.5	0
scalar csma802154net.fixhost[7].udpApp[0] 	sentPk:count 	0
attr interpolationmode  none
attr source  sentPk
attr title  "packets sent, count"
scalar csma802154net.fixhost[7].udpApp[0] 	sentPk:sum(packetBytes) 	0
attr interpolationmode  none
attr source  sentPk
attr title  "packets sent, sum(packetBytes)"
scalar csma802154net.fixhost[7].udp 	droppedPkBadChecksum:count 	0
attr interpolationmode  none
attr title  "packets dropped (checksum error), count"
scalar csma802154net.fixhost[7].udp 	droppedPkWrongPort:count 	0
attr interpolationmode  none
attr title  "packets dropped (wrong port), count"
scalar csma802154net.fixhost[7].udp 	passedUpPk:count 	0
attr interpolationmode  none
attr title  "packets passed up, count"
scalar csma802154net.fixhost[7].udp 	rcvdPk:count 	0
attr interpolationmode  none
attr source  rcvdPk
attr title  "packets received, count"
scalar csma802154net.fixhost[7].udp 	rcvdPk:sum(packetBytes) 	0
attr interpolationmode  none
attr source  rcvdPk
attr title  "packets received, sum(packetBytes)"
scalar csma802154net.fixhost[7].udp 	sentPk:count 	0
attr interpolationmode  none
attr source  sentPk
attr title  "packets sent, count"
scalar csma802154net.fixhost[7].udp 	sentPk:sum(packetBytes) 	0
attr interpolationmode  none
attr source  sentPk
attr title  "packets sent, sum(packetBytes)"
scalar csma802154net.fixhost[7].networkLayer.arp 	failedResolution:count 	0
attr title  "ARP failed resolutions, count"
scalar csma802154net.fixhost[7].networkLayer.arp 	initiatedResolution:count 	0
attr title  "ARP initiated resolutions, count"
scalar csma802154net.fixhost[7].networkLayer.arp 	sentReplies:count 	0
attr title  "ARP replies sent, count"
scalar csma802154net.fixhost[7].networkLayer.arp 	sentReq:count 	0
attr title  "ARP request sent, count"
scalar csma802154net.fixhost[7].wlan.ifq 	queueLength:max 	0
attr interpolationmode  sample-hold
attr title  "queue length, max"
scalar csma802154net.fixhost[7].wlan.ifq 	queueLength:timeavg 	0
attr interpolationmode  sample-hold
attr title  "queue length, timeavg"
statistic csma802154net.fixhost[7].wlan.ifq 	queueingTime:histogram
field count 1
field mean 0
field stddev -1.#IND
field sum 0
field sqrsum 0
field min 0
field max 0
attr interpolationmode  none
attr title  "queueing time, histogram"
bin	-INF	0
bin	-0.5	0
bin	-0.46666666666667	0
bin	-0.43333333333333	0
bin	-0.4	0
bin	-0.36666666666667	0
bin	-0.33333333333333	0
bin	-0.3	0
bin	-0.26666666666667	0
bin	-0.23333333333333	0
bin	-0.2	0
bin	-0.16666666666667	0
bin	-0.13333333333333	0
bin	-0.1	0
bin	-0.066666666666667	0
bin	-0.033333333333333	0
bin	-6.9388939039072e-018	1
bin	0.033333333333333	0
bin	0.066666666666667	0
bin	0.1	0
bin	0.13333333333333	0
bin	0.16666666666667	0
bin	0.2	0
bin	0.23333333333333	0
bin	0.26666666666667	0
bin	0.3	0
bin	0.33333333333333	0
bin	0.36666666666667	0
bin	0.4	0
bin	0.43333333333333	0
bin	0.46666666666667	0
bin	0.5	0
scalar csma802154net.fixhost[7].wlan.ifq 	dropPk:count 	0
attr interpolationmode  none
attr source  dropPkByQueue
attr title  "dropped packets, count"
scalar csma802154net.fixhost[7].wlan.ifq 	dropPk:sum(packetBytes) 	0
attr interpolationmode  none
attr source  dropPkByQueue
attr title  "dropped packets, sum(packetBytes)"
scalar csma802154net.fixhost[7].wlan.mac 	nbTxFrames 	0
scalar csma802154net.fixhost[7].wlan.mac 	nbRxFrames 	0
scalar csma802154net.fixhost[7].wlan.mac 	nbDroppedFrames 	0
scalar csma802154net.fixhost[7].wlan.mac 	nbMissedAcks 	0
scalar csma802154net.fixhost[7].wlan.mac 	nbRecvdAcks 	0
scalar csma802154net.fixhost[7].wlan.mac 	nbTxAcks 	0
scalar csma802154net.fixhost[7].wlan.mac 	nbDuplicates 	0
scalar csma802154net.fixhost[7].wlan.mac 	numCollision 	1
scalar csma802154net.fixhost[7].wlan.mac 	meanBackoff 	0.00712
scalar csma802154net.fixhost[7].wlan.mac 	nbBackoffs 	4
scalar csma802154net.fixhost[7].wlan.mac 	backoffDurations 	0.02848
scalar csma802154net.fixhost[7].wlan.phy 	lossRate:min 	-1.#IND
attr interpolationmode  backward-sample-hold
attr title  "packet loss rate, min"
scalar csma802154net.fixhost[7].wlan.phy 	lossRate:max 	-1.#IND
attr interpolationmode  backward-sample-hold
attr title  "packet loss rate, max"
scalar csma802154net.fixhost[7].wlan.phy 	lossRate:timeavg 	-1.#IND
attr interpolationmode  backward-sample-hold
attr title  "packet loss rate, timeavg"
scalar csma802154net.fixhost[7].wlan.phy 	radioState:count 	4
attr interpolationmode  sample-hold
attr title  "radio state (enum), count"
statistic csma802154net.fixhost[7].wlan.phy 	channelNo:histogram
field count 1
field mean 0
field stddev -1.#IND
field sum 0
field sqrsum 0
field min 0
field max 0
attr interpolationmode  sample-hold
attr title  "channel no, histogram"
bin	-INF	0
bin	-0.5	0
bin	-0.46666666666667	0
bin	-0.43333333333333	0
bin	-0.4	0
bin	-0.36666666666667	0
bin	-0.33333333333333	0
bin	-0.3	0
bin	-0.26666666666667	0
bin	-0.23333333333333	0
bin	-0.2	0
bin	-0.16666666666667	0
bin	-0.13333333333333	0
bin	-0.1	0
bin	-0.066666666666667	0
bin	-0.033333333333333	0
bin	-6.9388939039072e-018	1
bin	0.033333333333333	0
bin	0.066666666666667	0
bin	0.1	0
bin	0.13333333333333	0
bin	0.16666666666667	0
bin	0.2	0
bin	0.23333333333333	0
bin	0.26666666666667	0
bin	0.3	0
bin	0.33333333333333	0
bin	0.36666666666667	0
bin	0.4	0
bin	0.43333333333333	0
bin	0.46666666666667	0
bin	0.5	0
scalar csma802154net.fixhost[7].wlan.phy 	bitrate:min 	20000
attr interpolationmode  sample-hold
attr title  "tx bitrate, min"
attr unit  bps
scalar csma802154net.fixhost[7].wlan.phy 	bitrate:max 	20000
attr interpolationmode  sample-hold
attr title  "tx bitrate, max"
attr unit  bps
scalar csma802154net.fixhost[7].wlan.phy 	bitrate:timeavg 	20000
attr interpolationmode  sample-hold
attr title  "tx bitrate, timeavg"
attr unit  bps
scalar csma802154net.fixhost[8].udpApp[0] 	"Total sent" 	0
scalar csma802154net.fixhost[8].udpApp[0] 	"Total received" 	0
scalar csma802154net.fixhost[8].udpApp[0] 	"Total deleted" 	0
scalar csma802154net.fixhost[8].udpApp[0] 	"Mean delay" 	0
scalar csma802154net.fixhost[8].udpApp[0] 	"Min delay" 	0
scalar csma802154net.fixhost[8].udpApp[0] 	"Max delay" 	0
scalar csma802154net.fixhost[8].udpApp[0] 	"Deviation delay" 	-1.#IND
scalar csma802154net.fixhost[8].udpApp[0] 	outOfOrderPk:count 	0
attr interpolationmode  none
attr source  outOfOrderPk
attr title  "packets received out of order, count"
scalar csma802154net.fixhost[8].udpApp[0] 	outOfOrderPk:sum(packetBytes) 	0
attr interpolationmode  none
attr source  outOfOrderPk
attr title  "packets received out of order, sum(packetBytes)"
scalar csma802154net.fixhost[8].udpApp[0] 	dropPk:count 	0
attr interpolationmode  none
attr source  dropPk
attr title  "packets dropped, count"
scalar csma802154net.fixhost[8].udpApp[0] 	dropPk:sum(packetBytes) 	0
attr interpolationmode  none
attr source  dropPk
attr title  "packets dropped, sum(packetBytes)"
scalar csma802154net.fixhost[8].udpApp[0] 	rcvdPk:count 	0
attr interpolationmode  none
attr source  rcvdPk
attr title  "packets received, count"
scalar csma802154net.fixhost[8].udpApp[0] 	rcvdPk:sum(packetBytes) 	0
attr interpolationmode  none
attr source  rcvdPk
attr title  "packets received, sum(packetBytes)"
statistic csma802154net.fixhost[8].udpApp[0] 	endToEndDelay:histogram
field count 0
field mean 0
field stddev -1.#IND
field sum 0
field sqrsum 0
field min 0
field max 0
attr interpolationmode  none
attr source  messageAge(rcvdPk)
attr title  "delay, histogram"
attr unit  s
bin	-INF	0
bin	-0.5	0
bin	-0.46666666666667	0
bin	-0.43333333333333	0
bin	-0.4	0
bin	-0.36666666666667	0
bin	-0.33333333333333	0
bin	-0.3	0
bin	-0.26666666666667	0
bin	-0.23333333333333	0
bin	-0.2	0
bin	-0.16666666666667	0
bin	-0.13333333333333	0
bin	-0.1	0
bin	-0.066666666666667	0
bin	-0.033333333333333	0
bin	-6.9388939039072e-018	0
bin	0.033333333333333	0
bin	0.066666666666667	0
bin	0.1	0
bin	0.13333333333333	0
bin	0.16666666666667	0
bin	0.2	0
bin	0.23333333333333	0
bin	0.26666666666667	0
bin	0.3	0
bin	0.33333333333333	0
bin	0.36666666666667	0
bin	0.4	0
bin	0.43333333333333	0
bin	0.46666666666667	0
bin	0.5	0
scalar csma802154net.fixhost[8].udpApp[0] 	sentPk:count 	0
attr interpolationmode  none
attr source  sentPk
attr title  "packets sent, count"
scalar csma802154net.fixhost[8].udpApp[0] 	sentPk:sum(packetBytes) 	0
attr interpolationmode  none
attr source  sentPk
attr title  "packets sent, sum(packetBytes)"
scalar csma802154net.fixhost[8].udp 	droppedPkBadChecksum:count 	0
attr interpolationmode  none
attr title  "packets dropped (checksum error), count"
scalar csma802154net.fixhost[8].udp 	droppedPkWrongPort:count 	0
attr interpolationmode  none
attr title  "packets dropped (wrong port), count"
scalar csma802154net.fixhost[8].udp 	passedUpPk:count 	0
attr interpolationmode  none
attr title  "packets passed up, count"
scalar csma802154net.fixhost[8].udp 	rcvdPk:count 	0
attr interpolationmode  none
attr source  rcvdPk
attr title  "packets received, count"
scalar csma802154net.fixhost[8].udp 	rcvdPk:sum(packetBytes) 	0
attr interpolationmode  none
attr source  rcvdPk
attr title  "packets received, sum(packetBytes)"
scalar csma802154net.fixhost[8].udp 	sentPk:count 	0
attr interpolationmode  none
attr source  sentPk
attr title  "packets sent, count"
scalar csma802154net.fixhost[8].udp 	sentPk:sum(packetBytes) 	0
attr interpolationmode  none
attr source  sentPk
attr title  "packets sent, sum(packetBytes)"
scalar csma802154net.fixhost[8].networkLayer.arp 	failedResolution:count 	0
attr title  "ARP failed resolutions, count"
scalar csma802154net.fixhost[8].networkLayer.arp 	initiatedResolution:count 	0
attr title  "ARP initiated resolutions, count"
scalar csma802154net.fixhost[8].networkLayer.arp 	sentReplies:count 	0
attr title  "ARP replies sent, count"
scalar csma802154net.fixhost[8].networkLayer.arp 	sentReq:count 	0
attr title  "ARP request sent, count"
scalar csma802154net.fixhost[8].wlan.ifq 	queueLength:max 	0
attr interpolationmode  sample-hold
attr title  "queue length, max"
scalar csma802154net.fixhost[8].wlan.ifq 	queueLength:timeavg 	0
attr interpolationmode  sample-hold
attr title  "queue length, timeavg"
statistic csma802154net.fixhost[8].wlan.ifq 	queueingTime:histogram
field count 1
field mean 0
field stddev -1.#IND
field sum 0
field sqrsum 0
field min 0
field max 0
attr interpolationmode  none
attr title  "queueing time, histogram"
bin	-INF	0
bin	-0.5	0
bin	-0.46666666666667	0
bin	-0.43333333333333	0
bin	-0.4	0
bin	-0.36666666666667	0
bin	-0.33333333333333	0
bin	-0.3	0
bin	-0.26666666666667	0
bin	-0.23333333333333	0
bin	-0.2	0
bin	-0.16666666666667	0
bin	-0.13333333333333	0
bin	-0.1	0
bin	-0.066666666666667	0
bin	-0.033333333333333	0
bin	-6.9388939039072e-018	1
bin	0.033333333333333	0
bin	0.066666666666667	0
bin	0.1	0
bin	0.13333333333333	0
bin	0.16666666666667	0
bin	0.2	0
bin	0.23333333333333	0
bin	0.26666666666667	0
bin	0.3	0
bin	0.33333333333333	0
bin	0.36666666666667	0
bin	0.4	0
bin	0.43333333333333	0
bin	0.46666666666667	0
bin	0.5	0
scalar csma802154net.fixhost[8].wlan.ifq 	dropPk:count 	0
attr interpolationmode  none
attr source  dropPkByQueue
attr title  "dropped packets, count"
scalar csma802154net.fixhost[8].wlan.ifq 	dropPk:sum(packetBytes) 	0
attr interpolationmode  none
attr source  dropPkByQueue
attr title  "dropped packets, sum(packetBytes)"
scalar csma802154net.fixhost[8].wlan.mac 	nbTxFrames 	0
scalar csma802154net.fixhost[8].wlan.mac 	nbRxFrames 	0
scalar csma802154net.fixhost[8].wlan.mac 	nbDroppedFrames 	0
scalar csma802154net.fixhost[8].wlan.mac 	nbMissedAcks 	0
scalar csma802154net.fixhost[8].wlan.mac 	nbRecvdAcks 	0
scalar csma802154net.fixhost[8].wlan.mac 	nbTxAcks 	0
scalar csma802154net.fixhost[8].wlan.mac 	nbDuplicates 	0
scalar csma802154net.fixhost[8].wlan.mac 	numCollision 	1
scalar csma802154net.fixhost[8].wlan.mac 	meanBackoff 	0.00728
scalar csma802154net.fixhost[8].wlan.mac 	nbBackoffs 	4
scalar csma802154net.fixhost[8].wlan.mac 	backoffDurations 	0.02912
scalar csma802154net.fixhost[8].wlan.phy 	lossRate:min 	-1.#IND
attr interpolationmode  backward-sample-hold
attr title  "packet loss rate, min"
scalar csma802154net.fixhost[8].wlan.phy 	lossRate:max 	-1.#IND
attr interpolationmode  backward-sample-hold
attr title  "packet loss rate, max"
scalar csma802154net.fixhost[8].wlan.phy 	lossRate:timeavg 	-1.#IND
attr interpolationmode  backward-sample-hold
attr title  "packet loss rate, timeavg"
scalar csma802154net.fixhost[8].wlan.phy 	radioState:count 	4
attr interpolationmode  sample-hold
attr title  "radio state (enum), count"
statistic csma802154net.fixhost[8].wlan.phy 	channelNo:histogram
field count 1
field mean 0
field stddev -1.#IND
field sum 0
field sqrsum 0
field min 0
field max 0
attr interpolationmode  sample-hold
attr title  "channel no, histogram"
bin	-INF	0
bin	-0.5	0
bin	-0.46666666666667	0
bin	-0.43333333333333	0
bin	-0.4	0
bin	-0.36666666666667	0
bin	-0.33333333333333	0
bin	-0.3	0
bin	-0.26666666666667	0
bin	-0.23333333333333	0
bin	-0.2	0
bin	-0.16666666666667	0
bin	-0.13333333333333	0
bin	-0.1	0
bin	-0.066666666666667	0
bin	-0.033333333333333	0
bin	-6.9388939039072e-018	1
bin	0.033333333333333	0
bin	0.066666666666667	0
bin	0.1	0
bin	0.13333333333333	0
bin	0.16666666666667	0
bin	0.2	0
bin	0.23333333333333	0
bin	0.26666666666667	0
bin	0.3	0
bin	0.33333333333333	0
bin	0.36666666666667	0
bin	0.4	0
bin	0.43333333333333	0
bin	0.46666666666667	0
bin	0.5	0
scalar csma802154net.fixhost[8].wlan.phy 	bitrate:min 	20000
attr interpolationmode  sample-hold
attr title  "tx bitrate, min"
attr unit  bps
scalar csma802154net.fixhost[8].wlan.phy 	bitrate:max 	20000
attr interpolationmode  sample-hold
attr title  "tx bitrate, max"
attr unit  bps
scalar csma802154net.fixhost[8].wlan.phy 	bitrate:timeavg 	20000
attr interpolationmode  sample-hold
attr title  "tx bitrate, timeavg"
attr unit  bps
scalar csma802154net.fixhost[9].udpApp[0] 	"Total sent" 	0
scalar csma802154net.fixhost[9].udpApp[0] 	"Total received" 	0
scalar csma802154net.fixhost[9].udpApp[0] 	"Total deleted" 	0
scalar csma802154net.fixhost[9].udpApp[0] 	"Mean delay" 	0
scalar csma802154net.fixhost[9].udpApp[0] 	"Min delay" 	0
scalar csma802154net.fixhost[9].udpApp[0] 	"Max delay" 	0
scalar csma802154net.fixhost[9].udpApp[0] 	"Deviation delay" 	-1.#IND
scalar csma802154net.fixhost[9].udpApp[0] 	outOfOrderPk:count 	0
attr interpolationmode  none
attr source  outOfOrderPk
attr title  "packets received out of order, count"
scalar csma802154net.fixhost[9].udpApp[0] 	outOfOrderPk:sum(packetBytes) 	0
attr interpolationmode  none
attr source  outOfOrderPk
attr title  "packets received out of order, sum(packetBytes)"
scalar csma802154net.fixhost[9].udpApp[0] 	dropPk:count 	0
attr interpolationmode  none
attr source  dropPk
attr title  "packets dropped, count"
scalar csma802154net.fixhost[9].udpApp[0] 	dropPk:sum(packetBytes) 	0
attr interpolationmode  none
attr source  dropPk
attr title  "packets dropped, sum(packetBytes)"
scalar csma802154net.fixhost[9].udpApp[0] 	rcvdPk:count 	0
attr interpolationmode  none
attr source  rcvdPk
attr title  "packets received, count"
scalar csma802154net.fixhost[9].udpApp[0] 	rcvdPk:sum(packetBytes) 	0
attr interpolationmode  none
attr source  rcvdPk
attr title  "packets received, sum(packetBytes)"
statistic csma802154net.fixhost[9].udpApp[0] 	endToEndDelay:histogram
field count 0
field mean 0
field stddev -1.#IND
field sum 0
field sqrsum 0
field min 0
field max 0
attr interpolationmode  none
attr source  messageAge(rcvdPk)
attr title  "delay, histogram"
attr unit  s
bin	-INF	0
bin	-0.5	0
bin	-0.46666666666667	0
bin	-0.43333333333333	0
bin	-0.4	0
bin	-0.36666666666667	0
bin	-0.33333333333333	0
bin	-0.3	0
bin	-0.26666666666667	0
bin	-0.23333333333333	0
bin	-0.2	0
bin	-0.16666666666667	0
bin	-0.13333333333333	0
bin	-0.1	0
bin	-0.066666666666667	0
bin	-0.033333333333333	0
bin	-6.9388939039072e-018	0
bin	0.033333333333333	0
bin	0.066666666666667	0
bin	0.1	0
bin	0.13333333333333	0
bin	0.16666666666667	0
bin	0.2	0
bin	0.23333333333333	0
bin	0.26666666666667	0
bin	0.3	0
bin	0.33333333333333	0
bin	0.36666666666667	0
bin	0.4	0
bin	0.43333333333333	0
bin	0.46666666666667	0
bin	0.5	0
scalar csma802154net.fixhost[9].udpApp[0] 	sentPk:count 	0
attr interpolationmode  none
attr source  sentPk
attr title  "packets sent, count"
scalar csma802154net.fixhost[9].udpApp[0] 	sentPk:sum(packetBytes) 	0
attr interpolationmode  none
attr source  sentPk
attr title  "packets sent, sum(packetBytes)"
scalar csma802154net.fixhost[9].udp 	droppedPkBadChecksum:count 	0
attr interpolationmode  none
attr title  "packets dropped (checksum error), count"
scalar csma802154net.fixhost[9].udp 	droppedPkWrongPort:count 	0
attr interpolationmode  none
attr title  "packets dropped (wrong port), count"
scalar csma802154net.fixhost[9].udp 	passedUpPk:count 	0
attr interpolationmode  none
attr title  "packets passed up, count"
scalar csma802154net.fixhost[9].udp 	rcvdPk:count 	0
attr interpolationmode  none
attr source  rcvdPk
attr title  "packets received, count"
scalar csma802154net.fixhost[9].udp 	rcvdPk:sum(packetBytes) 	0
attr interpolationmode  none
attr source  rcvdPk
attr title  "packets received, sum(packetBytes)"
scalar csma802154net.fixhost[9].udp 	sentPk:count 	0
attr interpolationmode  none
attr source  sentPk
attr title  "packets sent, count"
scalar csma802154net.fixhost[9].udp 	sentPk:sum(packetBytes) 	0
attr interpolationmode  none
attr source  sentPk
attr title  "packets sent, sum(packetBytes)"
scalar csma802154net.fixhost[9].networkLayer.arp 	failedResolution:count 	0
attr title  "ARP failed resolutions, count"
scalar csma802154net.fixhost[9].networkLayer.arp 	initiatedResolution:count 	0
attr title  "ARP initiated resolutions, count"
scalar csma802154net.fixhost[9].networkLayer.arp 	sentReplies:count 	0
attr title  "ARP replies sent, count"
scalar csma802154net.fixhost[9].networkLayer.arp 	sentReq:count 	0
attr title  "ARP request sent, count"
scalar csma802154net.fixhost[9].wlan.ifq 	queueLength:max 	0
attr interpolationmode  sample-hold
attr title  "queue length, max"
scalar csma802154net.fixhost[9].wlan.ifq 	queueLength:timeavg 	0
attr interpolationmode  sample-hold
attr title  "queue length, timeavg"
statistic csma802154net.fixhost[9].wlan.ifq 	queueingTime:histogram
field count 1
field mean 0
field stddev -1.#IND
field sum 0
field sqrsum 0
field min 0
field max 0
attr interpolationmode  none
attr title  "queueing time, histogram"
bin	-INF	0
bin	-0.5	0
bin	-0.46666666666667	0
bin	-0.43333333333333	0
bin	-0.4	0
bin	-0.36666666666667	0
bin	-0.33333333333333	0
bin	-0.3	0
bin	-0.26666666666667	0
bin	-0.23333333333333	0
bin	-0.2	0
bin	-0.16666666666667	0
bin	-0.13333333333333	0
bin	-0.1	0
bin	-0.066666666666667	0
bin	-0.033333333333333	0
bin	-6.9388939039072e-018	1
bin	0.033333333333333	0
bin	0.066666666666667	0
bin	0.1	0
bin	0.13333333333333	0
bin	0.16666666666667	0
bin	0.2	0
bin	0.23333333333333	0
bin	0.26666666666667	0
bin	0.3	0
bin	0.33333333333333	0
bin	0.36666666666667	0
bin	0.4	0
bin	0.43333333333333	0
bin	0.46666666666667	0
bin	0.5	0
scalar csma802154net.fixhost[9].wlan.ifq 	dropPk:count 	0
attr interpolationmode  none
attr source  dropPkByQueue
attr title  "dropped packets, count"
scalar csma802154net.fixhost[9].wlan.ifq 	dropPk:sum(packetBytes) 	0
attr interpolationmode  none
attr source  dropPkByQueue
attr title  "dropped packets, sum(packetBytes)"
scalar csma802154net.fixhost[9].wlan.mac 	nbTxFrames 	0
scalar csma802154net.fixhost[9].wlan.mac 	nbRxFrames 	0
scalar csma802154net.fixhost[9].wlan.mac 	nbDroppedFrames 	0
scalar csma802154net.fixhost[9].wlan.mac 	nbMissedAcks 	0
scalar csma802154net.fixhost[9].wlan.mac 	nbRecvdAcks 	0
scalar csma802154net.fixhost[9].wlan.mac 	nbTxAcks 	0
scalar csma802154net.fixhost[9].wlan.mac 	nbDuplicates 	0
scalar csma802154net.fixhost[9].wlan.mac 	numCollision 	1
scalar csma802154net.fixhost[9].wlan.mac 	meanBackoff 	0.00688
scalar csma802154net.fixhost[9].wlan.mac 	nbBackoffs 	4
scalar csma802154net.fixhost[9].wlan.mac 	backoffDurations 	0.02752
scalar csma802154net.fixhost[9].wlan.phy 	lossRate:min 	-1.#IND
attr interpolationmode  backward-sample-hold
attr title  "packet loss rate, min"
scalar csma802154net.fixhost[9].wlan.phy 	lossRate:max 	-1.#IND
attr interpolationmode  backward-sample-hold
[...]
bin	-INF	0
bin	-0.5	0
bin	-0.46666666666667	0
bin	-0.43333333333333	0
bin	-0.4	0
bin	-0.36666666666667	0
bin	-0.33333333333333	0
bin	-0.3	0
bin	-0.26666666666667	0
bin	-0.23333333333333	0
bin	-0.2	0
bin	-0.16666666666667	0
bin	-0.13333333333333	0
bin	-0.1	0
bin	-0.066666666666667	0
bin	-0.033333333333333	0
bin	-6.9388939039072e-018	1
bin	0.033333333333333	0
bin	0.066666666666667	0
bin	0.1	0
bin	0.13333333333333	0
bin	0.16666666666667	0
bin	0.2	0
bin	0.23333333333333	0
bin	0.26666666666667	0
bin	0.3	0
bin	0.33333333333333	0
bin	0.36666666666667	0
bin	0.4	0
bin	0.43333333333333	0
bin	0.46666666666667	0
bin	0.5	0
scalar csma802154net.fixhost[122].wlan.ifq 	dropPk:count 	0
attr interpolationmode  none
attr source  dropPkByQueue
attr title  "dropped packets, count"
scalar csma802154net.fixhost[122].wlan.ifq 	dropPk:sum(packetBytes) 	0
attr interpolationmode  none
attr source  dropPkByQueue
attr title  "dropped packets, sum(packetBytes)"
scalar csma802154net.fixhost[122].wlan.mac 	nbTxFrames 	0
scalar csma802154net.fixhost[122].wlan.mac 	nbRxFrames 	0
scalar csma802154net.fixhost[122].wlan.mac 	nbDroppedFrames 	1
scalar csma802154net.fixhost[122].wlan.mac 	nbMissedAcks 	0
scalar csma802154net.fixhost[122].wlan.mac 	nbRecvdAcks 	0
scalar csma802154net.fixhost[122].wlan.mac 	nbTxAcks 	0
scalar csma802154net.fixhost[122].wlan.mac 	nbDuplicates 	0
scalar csma802154net.fixhost[122].wlan.mac 	numCollision 	4
scalar csma802154net.fixhost[122].wlan.mac 	meanBackoff 	0.00992
scalar csma802154net.fixhost[122].wlan.mac 	nbBackoffs 	6
scalar csma802154net.fixhost[122].wlan.mac 	backoffDurations 	0.05952
scalar csma802154net.fixhost[122].wlan.phy 	lossRate:min 	-1.#IND
attr interpolationmode  backward-sample-hold
attr title  "packet loss rate, min"
scalar csma802154net.fixhost[122].wlan.phy 	lossRate:max 	-1.#IND
attr interpolationmode  backward-sample-hold
attr title  "packet loss rate, max"
scalar csma802154net.fixhost[122].wlan.phy 	lossRate:timeavg 	-1.#IND
attr interpolationmode  backward-sample-hold
attr title  "packet loss rate, timeavg"
scalar csma802154net.fixhost[122].wlan.phy 	radioState:count 	21
attr interpolationmode  sample-hold
attr title  "radio state (enum), count"
statistic csma802154net.fixhost[122].wlan.phy 	channelNo:histogram
field count 1
field mean 0
field stddev -1.#IND
field sum 0
field sqrsum 0
field min 0
field max 0
attr interpolationmode  sample-hold
attr title  "channel no, histogram"
bin	-INF	0
bin	-0.5	0
bin	-0.46666666666667	0
bin	-0.43333333333333	0
bin	-0.4	0
bin	-0.36666666666667	0
bin	-0.33333333333333	0
bin	-0.3	0
bin	-0.26666666666667	0
bin	-0.23333333333333	0
bin	-0.2	0
bin	-0.16666666666667	0
bin	-0.13333333333333	0
bin	-0.1	0
bin	-0.066666666666667	0
bin	-0.033333333333333	0
bin	-6.9388939039072e-018	1
bin	0.033333333333333	0
bin	0.066666666666667	0
bin	0.1	0
bin	0.13333333333333	0
bin	0.16666666666667	0
bin	0.2	0
bin	0.23333333333333	0
bin	0.26666666666667	0
bin	0.3	0
bin	0.33333333333333	0
bin	0.36666666666667	0
bin	0.4	0
bin	0.43333333333333	0
bin	0.46666666666667	0
bin	0.5	0
scalar csma802154net.fixhost[122].wlan.phy 	bitrate:min 	20000
attr interpolationmode  sample-hold
attr title  "tx bitrate, min"
attr unit  bps
scalar csma802154net.fixhost[122].wlan.phy 	bitrate:max 	20000
attr interpolationmode  sample-hold
attr title  "tx bitrate, max"
attr unit  bps
scalar csma802154net.fixhost[122].wlan.phy 	bitrate:timeavg 	20000
attr interpolationmode  sample-hold
attr title  "tx bitrate, timeavg"
attr unit  bps
scalar csma802154net.fixhost[123].udpApp[0] 	"Total sent" 	0
scalar csma802154net.fixhost[123].udpApp[0] 	"Total received" 	0
scalar csma802154net.fixhost[123].udpApp[0] 	"Total deleted" 	0
scalar csma802154net.fixhost[123].udpApp[0] 	"Mean delay" 	0
scalar csma802154net.fixhost[123].udpApp[0] 	"Min delay" 	0
scalar csma802154net.fixhost[123].udpApp[0] 	"Max delay" 	0
scalar csma802154net.fixhost[123].udpApp[0] 	"Deviation delay" 	-1.#IND
scalar csma802154net.fixhost[123].udpApp[0] 	outOfOrderPk:count 	0
attr interpolationmode  none
attr source  outOfOrderPk
attr title  "packets received out of order, count"
scalar csma802154net.fixhost[123].udpApp[0] 	outOfOrderPk:sum(packetBytes) 	0
attr interpolationmode  none
attr source  outOfOrderPk
attr title  "packets received out of order, sum(packetBytes)"
scalar csma802154net.fixhost[123].udpApp[0] 	dropPk:count 	0
attr interpolationmode  none
attr source  dropPk
attr title  "packets dropped, count"
scalar csma802154net.fixhost[123].udpApp[0] 	dropPk:sum(packetBytes) 	0
attr interpolationmode  none
attr source  dropPk
attr title  "packets dropped, sum(packetBytes)"
scalar csma802154net.fixhost[123].udpApp[0] 	rcvdPk:count 	0
attr interpolationmode  none
attr source  rcvdPk
attr title  "packets received, count"
scalar csma802154net.fixhost[123].udpApp[0] 	rcvdPk:sum(packetBytes) 	0
attr interpolationmode  none
attr source  rcvdPk
attr title  "packets received, sum(packetBytes)"
statistic csma802154net.fixhost[123].udpApp[0] 	endToEndDelay:histogram
field count 0
field mean 0
field stddev -1.#IND
field sum 0
field sqrsum 0
field min 0
field max 0
attr interpolationmode  none
attr source  messageAge(rcvdPk)
attr title  "delay, histogram"
attr unit  s
bin	-INF	0
bin	-0.5	0
bin	-0.46666666666667	0
bin	-0.43333333333333	0
bin	-0.4	0
bin	-0.36666666666667	0
bin	-0.33333333333333	0
bin	-0.3	0
bin	-0.26666666666667	0
bin	-0.23333333333333	0
bin	-0.2	0
bin	-0.16666666666667	0
bin	-0.13333333333333	0
bin	-0.1	0
bin	-0.066666666666667	0
bin	-0.033333333333333	0
bin	-6.9388939039072e-018	0
bin	0.033333333333333	0
bin	0.066666666666667	0
bin	0.1	0
bin	0.13333333333333	0
bin	0.16666666666667	0
bin	0.2	0
bin	0.23333333333333	0
bin	0.26666666666667	0
bin	0.3	0
bin	0.33333333333333	0
bin	0.36666666666667	0
bin	0.4	0
bin	0.43333333333333	0
bin	0.46666666666667	0
bin	0.5	0
scalar csma802154net.fixhost[123].udpApp[0] 	sentPk:count 	0
attr interpolationmode  none
attr source  sentPk
attr title  "packets sent, count"
scalar csma802154net.fixhost[123].udpApp[0] 	sentPk:sum(packetBytes) 	0
attr interpolationmode  none
attr source  sentPk
attr title  "packets sent, sum(packetBytes)"
scalar csma802154net.fixhost[123].udp 	droppedPkBadChecksum:count 	0
attr interpolationmode  none
attr title  "packets dropped (checksum error), count"
scalar csma802154net.fixhost[123].udp 	droppedPkWrongPort:count 	0
attr interpolationmode  none
attr title  "packets dropped (wrong port), count"
scalar csma802154net.fixhost[123].udp 	passedUpPk:count 	0
attr interpolationmode  none
attr title  "packets passed up, count"
scalar csma802154net.fixhost[123].udp 	rcvdPk:count 	0
attr interpolationmode  none
attr source  rcvdPk
attr title  "packets received, count"
scalar csma802154net.fixhost[123].udp 	rcvdPk:sum(packetBytes) 	0
attr interpolationmode  none
attr source  rcvdPk
attr title  "packets received, sum(packetBytes)"
scalar csma802154net.fixhost[123].udp 	sentPk:count 	0
attr interpolationmode  none
attr source  sentPk
attr title  "packets sent, count"
scalar csma802154net.fixhost[123].udp 	sentPk:sum(packetBytes) 	0
attr interpolationmode  none
attr source  sentPk
attr title  "packets sent, sum(packetBytes)"
scalar csma802154net.fixhost[123].networkLayer.arp 	failedResolution:count 	0
attr title  "ARP failed resolutions, count"
scalar csma802154net.fixhost[123].networkLayer.arp 	initiatedResolution:count 	0
attr title  "ARP initiated resolutions, count"
scalar csma802154net.fixhost[123].networkLayer.arp 	sentReplies:count 	0
attr title  "ARP replies sent, count"
scalar csma802154net.fixhost[123].networkLayer.arp 	sentReq:count 	0
attr title  "ARP request sent, count"
scalar csma802154net.fixhost[123].wlan.ifq 	queueLength:max 	0
attr interpolationmode  sample-hold
attr title  "queue length, max"
scalar csma802154net.fixhost[123].wlan.ifq 	queueLength:timeavg 	0
attr interpolationmode  sample-hold
attr title  "queue length, timeavg"
statistic csma802154net.fixhost[123].wlan.ifq 	queueingTime:histogram
field count 1
field mean 0
field stddev -1.#IND
field sum 0
field sqrsum 0
field min 0
field max 0
attr interpolationmode  none
attr title  "queueing time, histogram"
bin	-INF	0
bin	-0.5	0
bin	-0.46666666666667	0
bin	-0.43333333333333	0
bin	-0.4	0
bin	-0.36666666666667	0
bin	-0.33333333333333	0
bin	-0.3	0
bin	-0.26666666666667	0
bin	-0.23333333333333	0
bin	-0.2	0
bin	-0.16666666666667	0
bin	-0.13333333333333	0
bin	-0.1	0
bin	-0.066666666666667	0
bin	-0.033333333333333	0
bin	-6.9388939039072e-018	1
bin	0.033333333333333	0
bin	0.066666666666667	0
bin	0.1	0
bin	0.13333333333333	0
bin	0.16666666666667	0
bin	0.2	0
bin	0.23333333333333	0
bin	0.26666666666667	0
bin	0.3	0
bin	0.33333333333333	0
bin	0.36666666666667	0
bin	0.4	0
bin	0.43333333333333	0
bin	0.46666666666667	0
bin	0.5	0
scalar csma802154net.fixhost[123].wlan.ifq 	dropPk:count 	0
attr interpolationmode  none
attr source  dropPkByQueue
attr title  "dropped packets, count"
scalar csma802154net.fixhost[123].wlan.ifq 	dropPk:sum(packetBytes) 	0
attr interpolationmode  none
attr source  dropPkByQueue
attr title  "dropped packets, sum(packetBytes)"
scalar csma802154net.fixhost[123].wlan.mac 	nbTxFrames 	0
scalar csma802154net.fixhost[123].wlan.mac 	nbRxFrames 	0
scalar csma802154net.fixhost[123].wlan.mac 	nbDroppedFrames 	1
scalar csma802154net.fixhost[123].wlan.mac 	nbMissedAcks 	0
scalar csma802154net.fixhost[123].wlan.mac 	nbRecvdAcks 	0
scalar csma802154net.fixhost[123].wlan.mac 	nbTxAcks 	0
scalar csma802154net.fixhost[123].wlan.mac 	nbDuplicates 	0
scalar csma802154net.fixhost[123].wlan.mac 	numCollision 	4
scalar csma802154net.fixhost[123].wlan.mac 	meanBackoff 	0.011786666666667
scalar csma802154net.fixhost[123].wlan.mac 	nbBackoffs 	6
scalar csma802154net.fixhost[123].wlan.mac 	backoffDurations 	0.07072
scalar csma802154net.fixhost[123].wlan.phy 	lossRate:min 	-1.#IND
attr interpolationmode  backward-sample-hold
attr title  "packet loss rate, min"
scalar csma802154net.fixhost[123].wlan.phy 	lossRate:max 	-1.#IND
attr interpolationmode  backward-sample-hold
attr title  "packet loss rate, max"
scalar csma802154net.fixhost[123].wlan.phy 	lossRate:timeavg 	-1.#IND
attr interpolationmode  backward-sample-hold
attr title  "packet loss rate, timeavg"
scalar csma802154net.fixhost[123].wlan.phy 	radioState:count 	21
attr interpolationmode  sample-hold
attr title  "radio state (enum), count"
statistic csma802154net.fixhost[123].wlan.phy 	channelNo:histogram
field count 1
field mean 0
field stddev -1.#IND
field sum 0
field sqrsum 0
field min 0
field max 0
attr interpolationmode  sample-hold
attr title  "channel no, histogram"
bin	-INF	0
bin	-0.5	0
bin	-0.46666666666667	0
bin	-0.43333333333333	0
bin	-0.4	0
bin	-0.36666666666667	0
bin	-0.33333333333333	0
bin	-0.3	0
bin	-0.26666666666667	0
bin	-0.23333333333333	0
bin	-0.2	0
bin	-0.16666666666667	0
bin	-0.13333333333333	0
bin	-0.1	0
bin	-0.066666666666667	0
bin	-0.033333333333333	0
bin	-6.9388939039072e-018	1
bin	0.033333333333333	0
bin	0.066666666666667	0
bin	0.1	0
bin	0.13333333333333	0
bin	0.16666666666667	0
bin	0.2	0
bin	0.23333333333333	0
bin	0.26666666666667	0
bin	0.3	0
bin	0.33333333333333	0
bin	0.36666666666667	0
bin	0.4	0
bin	0.43333333333333	0
bin	0.46666666666667	0
bin	0.5	0
scalar csma802154net.fixhost[123].wlan.phy 	bitrate:min 	20000
attr interpolationmode  sample-hold
attr title  "tx bitrate, min"
attr unit  bps
scalar csma802154net.fixhost[123].wlan.phy 	bitrate:max 	20000
attr interpolationmode  sample-hold
attr title  "tx bitrate, max"
attr unit  bps
scalar csma802154net.fixhost[123].wlan.phy 	bitrate:timeavg 	20000
attr interpolationmode  sample-hold
attr title  "tx bitrate, timeavg"
attr unit  bps
scalar csma802154net.fixhost[124].udpApp[0] 	"Total sent" 	0
scalar csma802154net.fixhost[124].udpApp[0] 	"Total received" 	1
scalar csma802154net.fixhost[124].udpApp[0] 	"Total deleted" 	0
scalar csma802154net.fixhost[124].udpApp[0] 	"Mean delay" 	1.119405016698
scalar csma802154net.fixhost[124].udpApp[0] 	"Min delay" 	1.119405016698
scalar csma802154net.fixhost[124].udpApp[0] 	"Max delay" 	1.119405016698
scalar csma802154net.fixhost[124].udpApp[0] 	"Deviation delay" 	-1.#IND
scalar csma802154net.fixhost[124].udpApp[0] 	outOfOrderPk:count 	0
attr interpolationmode  none
attr source  outOfOrderPk
attr title  "packets received out of order, count"
scalar csma802154net.fixhost[124].udpApp[0] 	outOfOrderPk:sum(packetBytes) 	0
attr interpolationmode  none
attr source  outOfOrderPk
attr title  "packets received out of order, sum(packetBytes)"
scalar csma802154net.fixhost[124].udpApp[0] 	dropPk:count 	0
attr interpolationmode  none
attr source  dropPk
attr title  "packets dropped, count"
scalar csma802154net.fixhost[124].udpApp[0] 	dropPk:sum(packetBytes) 	0
attr interpolationmode  none
attr source  dropPk
attr title  "packets dropped, sum(packetBytes)"
scalar csma802154net.fixhost[124].udpApp[0] 	rcvdPk:count 	1
attr interpolationmode  none
attr source  rcvdPk
attr title  "packets received, count"
scalar csma802154net.fixhost[124].udpApp[0] 	rcvdPk:sum(packetBytes) 	64
attr interpolationmode  none
attr source  rcvdPk
attr title  "packets received, sum(packetBytes)"
statistic csma802154net.fixhost[124].udpApp[0] 	endToEndDelay:histogram
field count 1
field mean 1.119405016698
field stddev -1.#IND
field sum 1.119405016698
field sqrsum 1.2530675914086
field min 1.119405016698
field max 1.119405016698
attr interpolationmode  none
attr source  messageAge(rcvdPk)
attr title  "delay, histogram"
attr unit  s
bin	-INF	0
bin	0.619405016698	0
bin	0.65273835003133	0
bin	0.68607168336467	0
bin	0.719405016698	0
bin	0.75273835003133	0
bin	0.78607168336467	0
bin	0.819405016698	0
bin	0.85273835003133	0
bin	0.88607168336467	0
bin	0.919405016698	0
bin	0.95273835003133	0
bin	0.98607168336467	0
bin	1.019405016698	0
bin	1.0527383500313	0
bin	1.0860716833647	0
bin	1.119405016698	1
bin	1.1527383500313	0
bin	1.1860716833647	0
bin	1.219405016698	0
bin	1.2527383500313	0
bin	1.2860716833647	0
bin	1.319405016698	0
bin	1.3527383500313	0
bin	1.3860716833647	0
bin	1.419405016698	0
bin	1.4527383500313	0
bin	1.4860716833647	0
bin	1.519405016698	0
bin	1.5527383500313	0
bin	1.5860716833647	0
bin	1.619405016698	0
scalar csma802154net.fixhost[124].udpApp[0] 	sentPk:count 	0
attr interpolationmode  none
attr source  sentPk
attr title  "packets sent, count"
scalar csma802154net.fixhost[124].udpApp[0] 	sentPk:sum(packetBytes) 	0
attr interpolationmode  none
attr source  sentPk
attr title  "packets sent, sum(packetBytes)"
scalar csma802154net.fixhost[124].udp 	droppedPkBadChecksum:count 	0
attr interpolationmode  none
attr title  "packets dropped (checksum error), count"
scalar csma802154net.fixhost[124].udp 	droppedPkWrongPort:count 	0
attr interpolationmode  none
attr title  "packets dropped (wrong port), count"
scalar csma802154net.fixhost[124].udp 	passedUpPk:count 	1
attr interpolationmode  none
attr title  "packets passed up, count"
scalar csma802154net.fixhost[124].udp 	rcvdPk:count 	1
attr interpolationmode  none
attr source  rcvdPk
attr title  "packets received, count"
scalar csma802154net.fixhost[124].udp 	rcvdPk:sum(packetBytes) 	72
attr interpolationmode  none
attr source  rcvdPk
attr title  "packets received, sum(packetBytes)"
scalar csma802154net.fixhost[124].udp 	sentPk:count 	0
attr interpolationmode  none
attr source  sentPk
attr title  "packets sent, count"
scalar csma802154net.fixhost[124].udp 	sentPk:sum(packetBytes) 	0
attr interpolationmode  none
attr source  sentPk
attr title  "packets sent, sum(packetBytes)"
scalar csma802154net.fixhost[124].networkLayer.arp 	failedResolution:count 	0
attr title  "ARP failed resolutions, count"
scalar csma802154net.fixhost[124].networkLayer.arp 	initiatedResolution:count 	0
attr title  "ARP initiated resolutions, count"
scalar csma802154net.fixhost[124].networkLayer.arp 	sentReplies:count 	0
attr title  "ARP replies sent, count"
scalar csma802154net.fixhost[124].networkLayer.arp 	sentReq:count 	0
attr title  "ARP request sent, count"
scalar csma802154net.fixhost[124].wlan.ifq 	queueLength:max 	0
attr interpolationmode  sample-hold
attr title  "queue length, max"
scalar csma802154net.fixhost[124].wlan.ifq 	queueLength:timeavg 	0
attr interpolationmode  sample-hold
attr title  "queue length, timeavg"
statistic csma802154net.fixhost[124].wlan.ifq 	queueingTime:histogram
field count 4
field mean 0
field stddev 0
field sum 0
field sqrsum 0
field min 0
field max 0
attr interpolationmode  none
attr title  "queueing time, histogram"
bin	-INF	0
bin	-0.5	0
bin	-0.46666666666667	0
bin	-0.43333333333333	0
bin	-0.4	0
bin	-0.36666666666667	0
bin	-0.33333333333333	0
bin	-0.3	0
bin	-0.26666666666667	0
bin	-0.23333333333333	0
bin	-0.2	0
bin	-0.16666666666667	0
bin	-0.13333333333333	0
bin	-0.1	0
bin	-0.066666666666667	0
bin	-0.033333333333333	0
bin	-6.9388939039072e-018	4
bin	0.033333333333333	0
bin	0.066666666666667	0
bin	0.1	0
bin	0.13333333333333	0
bin	0.16666666666667	0
bin	0.2	0
bin	0.23333333333333	0
bin	0.26666666666667	0
bin	0.3	0
bin	0.33333333333333	0
bin	0.36666666666667	0
bin	0.4	0
bin	0.43333333333333	0
bin	0.46666666666667	0
bin	0.5	0
scalar csma802154net.fixhost[124].wlan.ifq 	dropPk:count 	0
attr interpolationmode  none
attr source  dropPkByQueue
attr title  "dropped packets, count"
scalar csma802154net.fixhost[124].wlan.ifq 	dropPk:sum(packetBytes) 	0
attr interpolationmode  none
attr source  dropPkByQueue
attr title  "dropped packets, sum(packetBytes)"
scalar csma802154net.fixhost[124].wlan.mac 	nbTxFrames 	3
scalar csma802154net.fixhost[124].wlan.mac 	nbRxFrames 	1
scalar csma802154net.fixhost[124].wlan.mac 	nbDroppedFrames 	1
scalar csma802154net.fixhost[124].wlan.mac 	nbMissedAcks 	0
scalar csma802154net.fixhost[124].wlan.mac 	nbRecvdAcks 	0
scalar csma802154net.fixhost[124].wlan.mac 	nbTxAcks 	1
scalar csma802154net.fixhost[124].wlan.mac 	nbDuplicates 	0
scalar csma802154net.fixhost[124].wlan.mac 	numCollision 	4
scalar csma802154net.fixhost[124].wlan.mac 	meanBackoff 	0.013376
scalar csma802154net.fixhost[124].wlan.mac 	nbBackoffs 	10
scalar csma802154net.fixhost[124].wlan.mac 	backoffDurations 	0.13376
scalar csma802154net.fixhost[124].wlan.phy 	lossRate:min 	-1.#IND
attr interpolationmode  backward-sample-hold
attr title  "packet loss rate, min"
scalar csma802154net.fixhost[124].wlan.phy 	lossRate:max 	-1.#IND
attr interpolationmode  backward-sample-hold
attr title  "packet loss rate, max"
scalar csma802154net.fixhost[124].wlan.phy 	lossRate:timeavg 	-1.#IND
attr interpolationmode  backward-sample-hold
attr title  "packet loss rate, timeavg"
scalar csma802154net.fixhost[124].wlan.phy 	radioState:count 	36
attr interpolationmode  sample-hold
attr title  "radio state (enum), count"
statistic csma802154net.fixhost[124].wlan.phy 	channelNo:histogram
field count 1
field mean 0
field stddev -1.#IND
field sum 0
field sqrsum 0
field min 0
field max 0
attr interpolationmode  sample-hold
attr title  "channel no, histogram"
bin	-INF	0
bin	-0.5	0
bin	-0.46666666666667	0
bin	-0.43333333333333	0
bin	-0.4	0
bin	-0.36666666666667	0
bin	-0.33333333333333	0
bin	-0.3	0
bin	-0.26666666666667	0
bin	-0.23333333333333	0
bin	-0.2	0
bin	-0.16666666666667	0
bin	-0.13333333333333	0
bin	-0.1	0
bin	-0.066666666666667	0
bin	-0.033333333333333	0
bin	-6.9388939039072e-018	1
bin	0.033333333333333	0
bin	0.066666666666667	0
bin	0.1	0
bin	0.13333333333333	0
bin	0.16666666666667	0
bin	0.2	0
bin	0.23333333333333	0
bin	0.26666666666667	0
bin	0.3	0
bin	0.33333333333333	0
bin	0.36666666666667	0
bin	0.4	0
bin	0.43333333333333	0
bin	0.46666666666667	0
bin	0.5	0
scalar csma802154net.fixhost[124].wlan.phy 	bitrate:min 	20000
attr interpolationmode  sample-hold
attr title  "tx bitrate, min"
attr unit  bps
scalar csma802154net.fixhost[124].wlan.phy 	bitrate:max 	20000
attr interpolationmode  sample-hold
attr title  "tx bitrate, max"
attr unit  bps
scalar csma802154net.fixhost[124].wlan.phy 	bitrate:timeavg 	20000
attr interpolationmode  sample-hold
attr title  "tx bitrate, timeavg"
attr unit  bps
